Compound
 OpenBabel04182315293D

  6  5  0  0  0  0  0  0  0  0999 V2000
    0.6582    0.0619    0.0761 C   0  0  0  0  0  3  0  0  0  0  0  0
   -0.6582   -0.0619   -0.0761 C   0  0  0  0  0  3  0  0  0  0  0  0
    1.0777    0.9753    0.4853 H   0  0  0  0  0  0  0  0  0  0  0  0
    1.3200   -0.7498   -0.2082 H   0  0  0  0  0  0  0  0  0  0  0  0
   -1.3200    0.7498    0.2082 H   0  0  0  0  0  0  0  0  0  0  0  0
   -1.0777   -0.9753   -0.4853 H   0  0  0  0  0  0  0  0  0  0  0  0
  2  1  1  0  0  0  0
  3  1  1  0  0  0  0
  4  1  1  0  0  0  0
  5  2  1  0  0  0  0
  6  2  1  0  0  0  0
M  END
$$$$
