Compound
 OpenBabel05222315503D

102105  0  0  1  0  0  0  0  0999 V2000
    4.4773    0.2949    2.0967 C   0  0  0  0  0  0  0  0  0  0  0  0
    2.9919    0.1739    1.7756 C   0  0  0  0  0  0  0  0  0  0  0  0
    2.1453   -0.1080    3.0302 C   0  0  0  0  0  0  0  0  0  0  0  0
    0.6695   -0.3399    2.6571 C   0  0  0  0  0  0  0  0  0  0  0  0
   -0.1914   -0.7199    3.8795 C   0  0  0  0  0  0  0  0  0  0  0  0
   -1.5643   -1.3364    3.5221 C   0  0  0  0  0  0  0  0  0  0  0  0
   -2.7406   -0.4701    3.0888 C   0  0  2  0  0  3  0  0  0  0  0  0
   -4.0547   -0.6014    3.7020 C   0  0  0  0  0  3  0  0  0  0  0  0
   -5.2722    0.5093    3.0197 S   0  0  0  0  0  0  0  0  0  0  0  0
   -4.1051    0.9065    1.6707 C   0  0  1  0  0  3  0  0  0  0  0  0
   -2.7610    0.3902    2.0826 C   0  0  0  0  0  3  0  0  0  0  0  0
    5.0416    0.5005    1.1622 H   0  0  0  0  0  0  0  0  0  0  0  0
    4.8553   -0.6562    2.5308 H   0  0  0  0  0  0  0  0  0  0  0  0
    4.6556    1.1244    2.8129 H   0  0  0  0  0  0  0  0  0  0  0  0
    2.8755   -0.6604    1.0504 H   0  0  0  0  0  0  0  0  0  0  0  0
    2.6484    1.1201    1.3061 H   0  0  0  0  0  0  0  0  0  0  0  0
    2.5380   -1.0316    3.5110 H   0  0  0  0  0  0  0  0  0  0  0  0
    2.2345    0.7369    3.7426 H   0  0  0  0  0  0  0  0  0  0  0  0
    0.2574    0.5594    2.1570 H   0  0  0  0  0  0  0  0  0  0  0  0
    0.6679   -1.2020    1.9556 H   0  0  0  0  0  0  0  0  0  0  0  0
    0.3631   -1.5454    4.3794 H   0  0  0  0  0  0  0  0  0  0  0  0
   -0.2865    0.1133    4.6054 H   0  0  0  0  0  0  0  0  0  0  0  0
   -1.9081   -1.8966    4.4176 H   0  0  0  0  0  0  0  0  0  0  0  0
   -1.3943   -2.0979    2.7293 H   0  0  0  0  0  0  0  0  0  0  0  0
   -1.9140    0.6651    1.5040 H   0  0  0  0  0  0  0  0  0  0  0  0
    3.3491    0.6721   -1.9815 C   0  0  0  0  0  0  0  0  0  0  0  0
    1.8915    0.4419   -2.3623 C   0  0  0  0  0  0  0  0  0  0  0  0
    1.1265   -0.2494   -1.2354 C   0  0  0  0  0  0  0  0  0  0  0  0
   -0.3466   -0.4469   -1.5949 C   0  0  0  0  0  0  0  0  0  0  0  0
   -1.0791   -1.1333   -0.4477 C   0  0  0  0  0  0  0  0  0  0  0  0
   -2.6098   -1.2752   -0.5539 C   0  0  0  0  0  0  0  0  0  0  0  0
   -3.5503   -0.0603   -0.6550 C   0  0  1  0  0  3  0  0  0  0  0  0
   -4.6240    0.2249    0.3638 C   0  0  1  0  0  3  0  0  0  0  0  0
   -5.8086    1.3810   -0.4245 S   0  0  0  0  0  0  0  0  0  0  0  0
   -4.8150    1.5046   -1.9551 C   0  0  1  0  0  3  0  0  0  0  0  0
   -3.6077    0.6910   -1.7358 C   0  0  0  0  0  3  0  0  0  0  0  0
    3.8753    1.1730   -2.8209 H   0  0  0  0  0  0  0  0  0  0  0  0
    3.8499   -0.2963   -1.7697 H   0  0  0  0  0  0  0  0  0  0  0  0
    3.4144    1.3227   -1.0841 H   0  0  0  0  0  0  0  0  0  0  0  0
    1.8546   -0.1894   -3.2755 H   0  0  0  0  0  0  0  0  0  0  0  0
    1.4202    1.4263   -2.5729 H   0  0  0  0  0  0  0  0  0  0  0  0
    1.5939   -1.2355   -1.0196 H   0  0  0  0  0  0  0  0  0  0  0  0
    1.1756    0.3904   -0.3317 H   0  0  0  0  0  0  0  0  0  0  0  0
   -0.7896    0.5523   -1.7813 H   0  0  0  0  0  0  0  0  0  0  0  0
   -0.3938   -1.0925   -2.4908 H   0  0  0  0  0  0  0  0  0  0  0  0
   -0.6516   -2.1545   -0.3333 H   0  0  0  0  0  0  0  0  0  0  0  0
   -0.8233   -0.6098    0.4577 H   0  0  0  0  0  0  0  0  0  0  0  0
   -2.9258   -1.8494    0.3469 H   0  0  0  0  0  0  0  0  0  0  0  0
   -2.8313   -1.9275   -1.4252 H   0  0  0  0  0  0  0  0  0  0  0  0
   -2.9205    0.6492   -2.5250 H   0  0  0  0  0  0  0  0  0  0  0  0
    1.6932    1.4339   -5.8349 C   0  0  0  0  0  0  0  0  0  0  0  0
    0.2445    1.1308   -6.2075 C   0  0  0  0  0  0  0  0  0  0  0  0
   -0.4065    0.1597   -5.2185 C   0  0  0  0  0  0  0  0  0  0  0  0
   -1.9047   -0.0037   -5.5052 C   0  0  0  0  0  0  0  0  0  0  0  0
   -2.5585   -0.9940   -4.5320 C   0  0  0  0  0  0  0  0  0  0  0  0
   -4.1015   -0.9579   -4.4166 C   0  0  0  0  0  0  0  0  0  0  0  0
   -4.8306    0.3926   -4.3139 C   0  0  1  0  0  3  0  0  0  0  0  0
   -5.6486    0.8949   -3.1347 C   0  0  2  0  0  3  0  0  0  0  0  0
   -6.7190    2.2265   -3.8018 S   0  0  0  0  0  0  0  0  0  0  0  0
   -5.9227    2.1997   -5.4545 C   0  0  1  0  0  3  0  0  0  0  0  0
   -4.9447    1.1214   -5.4021 C   0  0  0  0  0  3  0  0  0  0  0  0
    2.1351    2.1192   -6.5881 H   0  0  0  0  0  0  0  0  0  0  0  0
    2.2942    0.5010   -5.7985 H   0  0  0  0  0  0  0  0  0  0  0  0
    1.7357    1.9390   -4.8485 H   0  0  0  0  0  0  0  0  0  0  0  0
    0.2149    0.6765   -7.2198 H   0  0  0  0  0  0  0  0  0  0  0  0
   -0.3141    2.0913   -6.2176 H   0  0  0  0  0  0  0  0  0  0  0  0
    0.1120   -0.8231   -5.2591 H   0  0  0  0  0  0  0  0  0  0  0  0
   -0.3061    0.5858   -4.2004 H   0  0  0  0  0  0  0  0  0  0  0  0
   -2.3370    1.0085   -5.3676 H   0  0  0  0  0  0  0  0  0  0  0  0
   -2.0660   -0.3616   -6.5353 H   0  0  0  0  0  0  0  0  0  0  0  0
   -2.2247   -2.0277   -4.7626 H   0  0  0  0  0  0  0  0  0  0  0  0
   -2.1561   -0.8235   -3.5502 H   0  0  0  0  0  0  0  0  0  0  0  0
   -4.3815   -1.5792   -3.5409 H   0  0  0  0  0  0  0  0  0  0  0  0
   -4.5239   -1.4684   -5.3092 H   0  0  0  0  0  0  0  0  0  0  0  0
   -4.4246    0.8980   -6.2768 H   0  0  0  0  0  0  0  0  0  0  0  0
   -0.0647    2.2695   -9.7466 C   0  0  0  0  0  0  0  0  0  0  0  0
   -1.5542    2.1708  -10.0748 C   0  0  0  0  0  0  0  0  0  0  0  0
   -2.2220    1.0233   -9.3079 C   0  0  0  0  0  0  0  0  0  0  0  0
   -3.7539    1.0543   -9.4582 C   0  0  0  0  0  0  0  0  0  0  0  0
   -4.4051   -0.1014   -8.6793 C   0  0  0  0  0  0  0  0  0  0  0  0
   -5.9186    0.0580   -8.3432 C   0  0  0  0  0  0  0  0  0  0  0  0
   -6.4472    1.4453   -7.9288 C   0  0  1  0  0  3  0  0  0  0  0  0
   -6.9843    1.8494   -6.5432 C   0  0  1  0  0  3  0  0  0  0  0  0
   -7.9702    3.3699   -6.8082 S   0  0  0  0  0  0  0  0  0  0  0  0
   -7.2911    3.4951   -8.4500 C   0  0  0  0  0  3  0  0  0  0  0  0
   -6.6426    2.3652   -8.8693 C   0  0  0  0  0  3  0  0  0  0  0  0
    0.3979    3.0823  -10.3431 H   0  0  0  0  0  0  0  0  0  0  0  0
    0.4561    1.3142   -9.9670 H   0  0  0  0  0  0  0  0  0  0  0  0
    0.0712    2.5218   -8.6741 H   0  0  0  0  0  0  0  0  0  0  0  0
   -1.6886    2.0031  -11.1638 H   0  0  0  0  0  0  0  0  0  0  0  0
   -2.0248    3.1392   -9.7971 H   0  0  0  0  0  0  0  0  0  0  0  0
   -1.8046    0.0495   -9.6448 H   0  0  0  0  0  0  0  0  0  0  0  0
   -1.9913    1.1551   -8.2296 H   0  0  0  0  0  0  0  0  0  0  0  0
   -4.0602    2.0225   -9.0142 H   0  0  0  0  0  0  0  0  0  0  0  0
   -4.0760    1.0165  -10.5200 H   0  0  0  0  0  0  0  0  0  0  0  0
   -4.2264   -1.0708   -9.1930 H   0  0  0  0  0  0  0  0  0  0  0  0
   -3.8496   -0.2410   -7.7549 H   0  0  0  0  0  0  0  0  0  0  0  0
   -6.1579   -0.6851   -7.5513 H   0  0  0  0  0  0  0  0  0  0  0  0
   -6.5050   -0.2476   -9.2369 H   0  0  0  0  0  0  0  0  0  0  0  0
   -6.3682    2.2146   -9.9064 H   0  0  0  0  0  0  0  0  0  0  0  0
   -4.2727   -1.2856    4.5092 H   0  0  0  0  0  0  0  0  0  0  0  0
   -7.5593    4.2901   -9.1327 H   0  0  0  0  0  0  0  0  0  0  0  0
  2  1  1  0  0  0  0
  3  2  1  0  0  0  0
  4  3  1  0  0  0  0
  5  4  1  0  0  0  0
  6  5  1  0  0  0  0
  7  6  1  6  0  0  0
  8  7  1  0  0  0  0
  9  8  1  0  0  0  0
 10  9  1  1  0  0  0
 11  7  1  0  0  0  0
 11 10  1  0  0  0  0
 12  1  1  0  0  0  0
 13  1  1  0  0  0  0
 14  1  1  0  0  0  0
 15  2  1  0  0  0  0
 16  2  1  0  0  0  0
 17  3  1  0  0  0  0
 18  3  1  0  0  0  0
 19  4  1  0  0  0  0
 20  4  1  0  0  0  0
 21  5  1  0  0  0  0
 22  5  1  0  0  0  0
 23  6  1  0  0  0  0
 24  6  1  0  0  0  0
 25 11  1  0  0  0  0
 27 26  1  0  0  0  0
 28 27  1  0  0  0  0
 29 28  1  0  0  0  0
 30 29  1  0  0  0  0
 31 30  1  0  0  0  0
 32 31  1  1  0  0  0
 33 10  1  0  0  0  0
 33 32  1  0  0  0  0
 33 34  1  1  0  0  0
 35 34  1  1  0  0  0
 36 32  1  0  0  0  0
 36 35  1  0  0  0  0
 37 26  1  0  0  0  0
 38 26  1  0  0  0  0
 39 26  1  0  0  0  0
 40 27  1  0  0  0  0
 41 27  1  0  0  0  0
 42 28  1  0  0  0  0
 43 28  1  0  0  0  0
 44 29  1  0  0  0  0
 45 29  1  0  0  0  0
 46 30  1  0  0  0  0
 47 30  1  0  0  0  0
 48 31  1  0  0  0  0
 49 31  1  0  0  0  0
 50 36  1  0  0  0  0
 52 51  1  0  0  0  0
 53 52  1  0  0  0  0
 54 53  1  0  0  0  0
 55 54  1  0  0  0  0
 56 55  1  0  0  0  0
 57 56  1  1  0  0  0
 58 35  1  0  0  0  0
 58 57  1  0  0  0  0
 58 59  1  6  0  0  0
 60 59  1  1  0  0  0
 61 57  1  0  0  0  0
 61 60  1  0  0  0  0
 62 51  1  0  0  0  0
 63 51  1  0  0  0  0
 64 51  1  0  0  0  0
 65 52  1  0  0  0  0
 66 52  1  0  0  0  0
 67 53  1  0  0  0  0
 68 53  1  0  0  0  0
 69 54  1  0  0  0  0
 70 54  1  0  0  0  0
 71 55  1  0  0  0  0
 72 55  1  0  0  0  0
 73 56  1  0  0  0  0
 74 56  1  0  0  0  0
 75 61  1  0  0  0  0
 77 76  1  0  0  0  0
 78 77  1  0  0  0  0
 79 78  1  0  0  0  0
 80 79  1  0  0  0  0
 81 80  1  0  0  0  0
 82 81  1  1  0  0  0
 83 60  1  0  0  0  0
 83 82  1  0  0  0  0
 83 84  1  1  0  0  0
 85 84  1  0  0  0  0
 86 82  1  0  0  0  0
 86 85  1  0  0  0  0
 87 76  1  0  0  0  0
 88 76  1  0  0  0  0
 89 76  1  0  0  0  0
 90 77  1  0  0  0  0
 91 77  1  0  0  0  0
 92 78  1  0  0  0  0
 93 78  1  0  0  0  0
 94 79  1  0  0  0  0
 95 79  1  0  0  0  0
 96 80  1  0  0  0  0
 97 80  1  0  0  0  0
 98 81  1  0  0  0  0
 99 81  1  0  0  0  0
100 86  1  0  0  0  0
101  8  1  0  0  0  0
102 85  1  0  0  0  0
M  END
$$$$
