Compound
 OpenBabel05222317523D

 27 27  0  0  1  0  0  0  0  0999 V2000
    4.1645    0.6569    0.1981 C   0  0  0  0  0  0  0  0  0  0  0  0
    2.7742    0.5277   -0.4173 C   0  0  0  0  0  0  0  0  0  0  0  0
    1.8457   -0.2980    0.4805 C   0  0  0  0  0  0  0  0  0  0  0  0
    0.4503   -0.4255   -0.1413 C   0  0  0  0  0  0  0  0  0  0  0  0
   -0.4827   -1.2449    0.7626 C   0  0  0  0  0  0  0  0  0  0  0  0
   -1.8650   -1.4598    0.1308 C   0  0  0  0  0  0  0  0  0  0  0  0
   -2.6390   -0.1761    0.0234 C   0  0  1  0  0  3  0  0  0  0  0  0
   -3.2734    0.4213    1.1077 C   0  0  0  0  0  3  0  0  0  0  0  0
   -3.9762    1.8504    0.5725 S   0  0  0  0  0  0  0  0  0  0  0  0
   -3.4826    1.7297   -1.0294 C   0  0  0  0  0  3  0  0  0  0  0  0
   -2.7522    0.5581   -1.1678 C   0  0  0  0  0  3  0  0  0  0  0  0
    4.8134    1.2585   -0.4727 H   0  0  0  0  0  0  0  0  0  0  0  0
    4.6230   -0.3464    0.3298 H   0  0  0  0  0  0  0  0  0  0  0  0
    4.1044    1.1654    1.1839 H   0  0  0  0  0  0  0  0  0  0  0  0
    2.8654    0.0396   -1.4122 H   0  0  0  0  0  0  0  0  0  0  0  0
    2.3492    1.5450   -0.5617 H   0  0  0  0  0  0  0  0  0  0  0  0
    2.2792   -1.3125    0.6237 H   0  0  0  0  0  0  0  0  0  0  0  0
    1.7616    0.1944    1.4746 H   0  0  0  0  0  0  0  0  0  0  0  0
    0.0257    0.5912   -0.2891 H   0  0  0  0  0  0  0  0  0  0  0  0
    0.5332   -0.9225   -1.1330 H   0  0  0  0  0  0  0  0  0  0  0  0
   -0.0266   -2.2426    0.9446 H   0  0  0  0  0  0  0  0  0  0  0  0
   -0.5956   -0.7393    1.7471 H   0  0  0  0  0  0  0  0  0  0  0  0
   -2.4401   -2.1718    0.7615 H   0  0  0  0  0  0  0  0  0  0  0  0
   -1.7542   -1.9277   -0.8719 H   0  0  0  0  0  0  0  0  0  0  0  0
   -3.3032    0.0380    2.1191 H   0  0  0  0  0  0  0  0  0  0  0  0
   -3.6907    2.4424   -1.8157 H   0  0  0  0  0  0  0  0  0  0  0  0
   -2.3084    0.2486   -2.1051 H   0  0  0  0  0  0  0  0  0  0  0  0
  2  1  1  0  0  0  0
  3  2  1  0  0  0  0
  4  3  1  0  0  0  0
  5  4  1  0  0  0  0
  6  5  1  0  0  0  0
  7  6  1  1  0  0  0
  8  7  1  0  0  0  0
  9  8  1  0  0  0  0
 10  9  1  0  0  0  0
 11  7  1  0  0  0  0
 11 10  1  0  0  0  0
 12  1  1  0  0  0  0
 13  1  1  0  0  0  0
 14  1  1  0  0  0  0
 15  2  1  0  0  0  0
 16  2  1  0  0  0  0
 17  3  1  0  0  0  0
 18  3  1  0  0  0  0
 19  4  1  0  0  0  0
 20  4  1  0  0  0  0
 21  5  1  0  0  0  0
 22  5  1  0  0  0  0
 23  6  1  0  0  0  0
 24  6  1  0  0  0  0
 25  8  1  0  0  0  0
 26 10  1  0  0  0  0
 27 11  1  0  0  0  0
M  END
$$$$
