Compound
 OpenBabel05232315513D

 79 80  0  0  1  0  0  0  0  0999 V2000
    4.1645    0.6569    0.1981 C   0  0  0  0  0  0  0  0  0  0  0  0
    2.7742    0.5277   -0.4173 C   0  0  0  0  0  0  0  0  0  0  0  0
    1.8457   -0.2980    0.4805 C   0  0  0  0  0  0  0  0  0  0  0  0
    0.4503   -0.4255   -0.1413 C   0  0  0  0  0  0  0  0  0  0  0  0
   -0.4827   -1.2449    0.7626 C   0  0  0  0  0  0  0  0  0  0  0  0
   -1.8650   -1.4598    0.1308 C   0  0  0  0  0  0  0  0  0  0  0  0
   -2.6390   -0.1761    0.0234 C   0  0  2  0  0  3  0  0  0  0  0  0
   -3.2734    0.4213    1.1077 C   0  0  0  0  0  3  0  0  0  0  0  0
   -3.9762    1.8504    0.5725 S   0  0  0  0  0  0  0  0  0  0  0  0
   -3.4826    1.7297   -1.0294 C   0  0  0  0  0  3  0  0  0  0  0  0
   -2.7522    0.5581   -1.1678 C   0  0  0  0  0  3  0  0  0  0  0  0
    4.8134    1.2585   -0.4727 H   0  0  0  0  0  0  0  0  0  0  0  0
    4.6230   -0.3464    0.3298 H   0  0  0  0  0  0  0  0  0  0  0  0
    4.1044    1.1654    1.1839 H   0  0  0  0  0  0  0  0  0  0  0  0
    2.8654    0.0396   -1.4122 H   0  0  0  0  0  0  0  0  0  0  0  0
    2.3492    1.5450   -0.5617 H   0  0  0  0  0  0  0  0  0  0  0  0
    2.2792   -1.3125    0.6237 H   0  0  0  0  0  0  0  0  0  0  0  0
    1.7616    0.1944    1.4746 H   0  0  0  0  0  0  0  0  0  0  0  0
    0.0257    0.5912   -0.2891 H   0  0  0  0  0  0  0  0  0  0  0  0
    0.5332   -0.9225   -1.1330 H   0  0  0  0  0  0  0  0  0  0  0  0
   -0.0266   -2.2426    0.9446 H   0  0  0  0  0  0  0  0  0  0  0  0
   -0.5956   -0.7393    1.7471 H   0  0  0  0  0  0  0  0  0  0  0  0
   -2.4401   -2.1718    0.7615 H   0  0  0  0  0  0  0  0  0  0  0  0
   -1.7542   -1.9277   -0.8719 H   0  0  0  0  0  0  0  0  0  0  0  0
   -3.3032    0.0380    2.1191 H   0  0  0  0  0  0  0  0  0  0  0  0
   -3.6907    2.4424   -1.8157 H   0  0  0  0  0  0  0  0  0  0  0  0
   -2.3084    0.2486   -2.1051 H   0  0  0  0  0  0  0  0  0  0  0  0
   14.1782    0.4879    0.5518 C   0  0  0  0  0  0  0  0  0  0  0  0
   12.7739    0.2365    0.0162 C   0  0  0  0  0  0  0  0  0  0  0  0
   11.8755   -0.4148    1.0774 C   0  0  0  0  0  0  0  0  0  0  0  0
   10.4777   -0.6708    0.5066 C   0  0  0  0  0  0  0  0  0  0  0  0
    9.5195   -1.2666    1.5591 C   0  0  0  0  0  0  0  0  0  0  0  0
    8.1344   -1.5623    0.9537 C   0  0  0  0  0  0  0  0  0  0  0  0
    7.5221   -0.3138    0.3823 C   0  0  2  0  0  3  0  0  0  0  0  0
    7.1275    0.7787    1.1448 C   0  0  0  0  0  3  0  0  0  0  0  0
    6.5870    1.9728    0.0950 S   0  0  0  0  0  0  0  0  0  0  0  0
    6.8759    1.1320   -1.3388 C   0  0  2  0  0  3  0  0  0  0  0  0
    7.3562   -0.1292   -0.9955 C   0  0  0  0  0  3  0  0  0  0  0  0
   14.7946    0.9685   -0.2389 H   0  0  0  0  0  0  0  0  0  0  0  0
   14.6570   -0.4704    0.8422 H   0  0  0  0  0  0  0  0  0  0  0  0
   14.1410    1.1635    1.4326 H   0  0  0  0  0  0  0  0  0  0  0  0
   12.8438   -0.4229   -0.8768 H   0  0  0  0  0  0  0  0  0  0  0  0
   12.3338    1.2097   -0.2921 H   0  0  0  0  0  0  0  0  0  0  0  0
   12.3197   -1.3801    1.4052 H   0  0  0  0  0  0  0  0  0  0  0  0
   11.7985    0.2645    1.9550 H   0  0  0  0  0  0  0  0  0  0  0  0
   10.0680    0.2962    0.1414 H   0  0  0  0  0  0  0  0  0  0  0  0
   10.5599   -1.3683   -0.3565 H   0  0  0  0  0  0  0  0  0  0  0  0
    9.9428   -2.2182    1.9466 H   0  0  0  0  0  0  0  0  0  0  0  0
    9.4148   -0.5580    2.4097 H   0  0  0  0  0  0  0  0  0  0  0  0
    7.4551   -2.0006    1.7155 H   0  0  0  0  0  0  0  0  0  0  0  0
    8.2734   -2.3163    0.1475 H   0  0  0  0  0  0  0  0  0  0  0  0
    7.6253   -0.9005   -1.6942 H   0  0  0  0  0  0  0  0  0  0  0  0
   13.8984    2.1178   -3.5394 C   0  0  0  0  0  0  0  0  0  0  0  0
   12.5452    2.1306   -4.2480 C   0  0  0  0  0  0  0  0  0  0  0  0
   11.6007    1.0981   -3.6284 C   0  0  0  0  0  0  0  0  0  0  0  0
   10.2182    1.1120   -4.2965 C   0  0  0  0  0  0  0  0  0  0  0  0
    9.3289    0.0367   -3.6602 C   0  0  0  0  0  0  0  0  0  0  0  0
    7.9016   -0.0073   -4.2446 C   0  0  0  0  0  0  0  0  0  0  0  0
    7.0987    1.2408   -3.9582 C   0  0  2  0  0  3  0  0  0  0  0  0
    6.6779    1.7099   -2.6930 C   0  0  1  0  0  3  0  0  0  0  0  0
    5.8675    3.1677   -2.9355 S   0  0  0  0  0  0  0  0  0  0  0  0
    6.0019    3.2111   -4.6034 C   0  0  0  0  0  3  0  0  0  0  0  0
    6.7017    2.0876   -5.0104 C   0  0  0  0  0  3  0  0  0  0  0  0
   14.5728    2.8653   -4.0072 H   0  0  0  0  0  0  0  0  0  0  0  0
   14.3687    1.1143   -3.6190 H   0  0  0  0  0  0  0  0  0  0  0  0
   13.7733    2.3746   -2.4654 H   0  0  0  0  0  0  0  0  0  0  0  0
   12.6965    1.8965   -5.3242 H   0  0  0  0  0  0  0  0  0  0  0  0
   12.1033    3.1466   -4.1596 H   0  0  0  0  0  0  0  0  0  0  0  0
   12.0532    0.0867   -3.7311 H   0  0  0  0  0  0  0  0  0  0  0  0
   11.4750    1.3242   -2.5475 H   0  0  0  0  0  0  0  0  0  0  0  0
    9.7589    2.1149   -4.1580 H   0  0  0  0  0  0  0  0  0  0  0  0
   10.3199    0.9081   -5.3848 H   0  0  0  0  0  0  0  0  0  0  0  0
    9.8013   -0.9551   -3.8325 H   0  0  0  0  0  0  0  0  0  0  0  0
    9.3091    0.2182   -2.5719 H   0  0  0  0  0  0  0  0  0  0  0  0
    7.3428   -0.8821   -3.8571 H   0  0  0  0  0  0  0  0  0  0  0  0
    7.9971   -0.1609   -5.3420 H   0  0  0  0  0  0  0  0  0  0  0  0
    6.9300    1.8941   -6.0505 H   0  0  0  0  0  0  0  0  0  0  0  0
    7.1767    0.8548    2.2229 H   0  0  0  0  0  0  0  0  0  0  0  0
    5.6175    3.9862   -5.2524 H   0  0  0  0  0  0  0  0  0  0  0  0
  2  1  1  0  0  0  0
  3  2  1  0  0  0  0
  4  3  1  0  0  0  0
  5  4  1  0  0  0  0
  6  5  1  0  0  0  0
  7  6  1  6  0  0  0
  8  7  1  0  0  0  0
  9  8  1  0  0  0  0
 10  9  1  0  0  0  0
 11  7  1  0  0  0  0
 11 10  1  0  0  0  0
 12  1  1  0  0  0  0
 13  1  1  0  0  0  0
 14  1  1  0  0  0  0
 15  2  1  0  0  0  0
 16  2  1  0  0  0  0
 17  3  1  0  0  0  0
 18  3  1  0  0  0  0
 19  4  1  0  0  0  0
 20  4  1  0  0  0  0
 21  5  1  0  0  0  0
 22  5  1  0  0  0  0
 23  6  1  0  0  0  0
 24  6  1  0  0  0  0
 25  8  1  0  0  0  0
 26 10  1  0  0  0  0
 27 11  1  0  0  0  0
 29 28  1  0  0  0  0
 30 29  1  0  0  0  0
 31 30  1  0  0  0  0
 32 31  1  0  0  0  0
 33 32  1  0  0  0  0
 34 33  1  1  0  0  0
 35 34  1  0  0  0  0
 36 35  1  0  0  0  0
 37 36  1  1  0  0  0
 38 34  1  0  0  0  0
 38 37  1  0  0  0  0
 39 28  1  0  0  0  0
 40 28  1  0  0  0  0
 41 28  1  0  0  0  0
 42 29  1  0  0  0  0
 43 29  1  0  0  0  0
 44 30  1  0  0  0  0
 45 30  1  0  0  0  0
 46 31  1  0  0  0  0
 47 31  1  0  0  0  0
 48 32  1  0  0  0  0
 49 32  1  0  0  0  0
 50 33  1  0  0  0  0
 51 33  1  0  0  0  0
 52 38  1  0  0  0  0
 54 53  1  0  0  0  0
 55 54  1  0  0  0  0
 56 55  1  0  0  0  0
 57 56  1  0  0  0  0
 58 57  1  0  0  0  0
 59 58  1  6  0  0  0
 60 37  1  0  0  0  0
 60 59  1  0  0  0  0
 60 61  1  6  0  0  0
 62 61  1  0  0  0  0
 63 59  1  0  0  0  0
 63 62  1  0  0  0  0
 64 53  1  0  0  0  0
 65 53  1  0  0  0  0
 66 53  1  0  0  0  0
 67 54  1  0  0  0  0
 68 54  1  0  0  0  0
 69 55  1  0  0  0  0
 70 55  1  0  0  0  0
 71 56  1  0  0  0  0
 72 56  1  0  0  0  0
 73 57  1  0  0  0  0
 74 57  1  0  0  0  0
 75 58  1  0  0  0  0
 76 58  1  0  0  0  0
 77 63  1  0  0  0  0
 78 35  1  0  0  0  0
 79 62  1  0  0  0  0
M  END
$$$$
