Compound
 OpenBabel01172312383D

234243  0  0  1  0  0  0  0  0999 V2000
   -9.9250   -0.7260    0.5880 C   0  0  2  0  0  0  0  0  0  0  0  0
  -10.8450    0.4850    0.8500 C   0  0  2  0  0  3  0  0  0  0  0  0
  -10.6150    0.8880    2.3220 C   0  0  1  0  0  3  0  0  0  0  0  0
  -10.8720    2.6890    2.5290 S   0  0  0  0  0  0  0  0  0  0  0  0
  -10.6410    2.8940    0.7780 C   0  0  0  0  0  3  0  0  0  0  0  0
  -10.6020    1.7320    0.0570 C   0  0  0  0  0  3  0  0  0  0  0  0
   -9.2190    0.3780    2.7010 C   0  0  1  0  0  3  0  0  0  0  0  0
   -8.6910   -0.1890    1.4440 C   0  0  1  0  0  3  0  0  0  0  0  0
   -7.2950   -0.6410    1.8070 C   0  0  0  0  0  3  0  0  0  0  0  0
   -6.5810    0.3260    2.7910 C   0  0  1  0  0  3  0  0  0  0  0  0
   -7.8970    1.5330    3.2730 S   0  0  0  0  0  0  0  0  0  0  0  0
  -10.6770    3.8660    0.3010 H   0  0  0  0  0  0  0  0  0  0  0  0
  -10.6130    1.7750   -1.0190 H   0  0  0  0  0  0  0  0  0  0  0  0
   -6.9750   -1.6600    1.6520 H   0  0  0  0  0  0  0  0  0  0  0  0
    1.4290    0.0630   -1.1860 C   0  0  2  0  0  0  0  0  0  0  0  0
    0.8670    1.6070   -1.0370 C   0  0  1  0  0  3  0  0  0  0  0  0
    1.5810    2.2820    0.1320 C   0  0  2  0  0  3  0  0  0  0  0  0
    0.5770    2.0610    1.6890 S   0  0  0  0  0  0  0  0  0  0  0  0
   -0.9740    2.2740    0.7230 C   0  0  2  0  0  3  0  0  0  0  0  0
   -0.5570    2.0600   -0.7360 C   0  0  0  0  0  3  0  0  0  0  0  0
    2.9540    1.6770    0.0250 C   0  0  1  0  0  3  0  0  0  0  0  0
    2.8870    0.4830   -0.8630 C   0  0  2  0  0  3  0  0  0  0  0  0
    4.1700   -0.2490   -0.7610 C   0  0  0  0  0  3  0  0  0  0  0  0
    5.1380    0.4430    0.1610 C   0  0  1  0  0  3  0  0  0  0  0  0
    4.1310    1.4100    1.3750 S   0  0  0  0  0  0  0  0  0  0  0  0
   -1.0520    2.6440   -1.4960 H   0  0  0  0  0  0  0  0  0  0  0  0
    4.5180   -0.8980   -1.5540 H   0  0  0  0  0  0  0  0  0  0  0  0
    8.6570    1.8750   -0.6810 C   0  0  2  0  0  3  0  0  0  0  0  0
    9.9140    1.5300   -0.0600 N   0  0  0  0  0  2  0  0  0  0  0  0
    9.8100   -0.2230    0.2050 S   0  0  0  0  0  0  0  0  0  0  0  0
    8.0330   -0.2640    0.0750 N   0  0  0  0  0  2  0  0  0  0  0  0
    7.5950    1.1160    0.0740 C   0  0  1  0  0  3  0  0  0  0  0  0
    6.2290    1.2840   -0.6000 C   0  0  1  0  0  3  0  0  0  0  0  0
    5.9090    2.8000   -0.7540 C   0  0  1  0  0  3  0  0  0  0  0  0
    4.7950    2.9920   -1.5460 F   0  0  0  0  0  0  0  0  0  0  0  0
    7.0670    3.6120   -1.3570 C   0  0  0  0  0  3  0  0  0  0  0  0
    8.3700    3.3620   -0.6220 C   0  0  0  0  0  3  0  0  0  0  0  0
    6.8230    4.6960   -1.3360 H   0  0  0  0  0  0  0  0  0  0  0  0
    9.1930    3.9280   -1.1210 H   0  0  0  0  0  0  0  0  0  0  0  0
   -4.9040    2.0330    1.4780 C   0  0  1  0  0  3  0  0  0  0  0  0
   -5.8290    3.1390    1.6030 N   0  0  0  0  0  2  0  0  0  0  0  0
   -5.1140    4.5150    0.7320 S   0  0  0  0  0  0  0  0  0  0  0  0
   -3.5520    3.7130    0.4740 N   0  0  0  0  0  2  0  0  0  0  0  0
   -3.5020    2.6570    1.4510 C   0  0  1  0  0  3  0  0  0  0  0  0
   -2.3810    1.6260    1.1890 C   0  0  1  0  0  3  0  0  0  0  0  0
   -2.4500    0.7300    2.4570 C   0  0  1  0  0  3  0  0  0  0  0  0
   -1.4610   -0.2300    2.4420 F   0  0  0  0  0  0  0  0  0  0  0  0
   -3.8580    0.0410    2.6420 C   0  0  0  0  0  3  0  0  0  0  0  0
   -5.1030    0.9960    2.6100 C   0  0  1  0  0  3  0  0  0  0  0  0
   -3.8680   -0.5700    3.5670 H   0  0  0  0  0  0  0  0  0  0  0  0
  -18.5260   -6.0580    1.4850 C   0  0  0  0  0  0  0  0  0  0  0  0
  -19.2100   -4.7820    0.9850 C   0  0  0  0  0  0  0  0  0  0  0  0
  -18.3480   -3.9110    0.0390 C   0  0  0  0  0  0  0  0  0  0  0  0
  -17.0280   -3.4940    0.7030 C   0  0  0  0  0  0  0  0  0  0  0  0
  -16.1330   -2.4450   -0.0500 C   0  0  1  0  0  0  0  0  0  0  0  0
  -14.7340   -2.4580    0.8230 C   0  0  0  0  0  0  0  0  0  0  0  0
  -13.2280   -2.3100    0.2660 C   0  0  0  0  0  0  0  0  0  0  0  0
  -12.1540   -2.2480    1.4140 C   0  0  0  0  0  0  0  0  0  0  0  0
  -10.5820   -2.0680    1.1660 C   0  0  0  0  0  0  0  0  0  0  0  0
  -16.9630   -1.0260   -0.1760 C   0  0  0  0  0  0  0  0  0  0  0  0
  -17.9080   -0.4810   -1.3860 C   0  0  0  0  0  0  0  0  0  0  0  0
  -17.9600    1.1040   -1.6630 C   0  0  0  0  0  0  0  0  0  0  0  0
  -17.1450    1.9470   -2.7330 C   0  0  0  0  0  0  0  0  0  0  0  0
  -17.6240    2.0840   -4.1980 C   0  0  0  0  0  0  0  0  0  0  0  0
  -16.6780    3.0190   -4.9830 C   0  0  0  0  0  0  0  0  0  0  0  0
  -19.2300   -6.6280    2.1300 H   0  0  0  0  0  0  0  0  0  0  0  0
  -17.6390   -5.8220    2.1140 H   0  0  0  0  0  0  0  0  0  0  0  0
  -18.2170   -6.7020    0.6370 H   0  0  0  0  0  0  0  0  0  0  0  0
  -20.1380   -5.0710    0.4460 H   0  0  0  0  0  0  0  0  0  0  0  0
  -19.5030   -4.1780    1.8710 H   0  0  0  0  0  0  0  0  0  0  0  0
  -18.1270   -4.4610   -0.9000 H   0  0  0  0  0  0  0  0  0  0  0  0
  -18.9550   -3.0190   -0.2150 H   0  0  0  0  0  0  0  0  0  0  0  0
  -16.4560   -4.4390    0.8190 H   0  0  0  0  0  0  0  0  0  0  0  0
  -17.2420   -3.0950    1.7220 H   0  0  0  0  0  0  0  0  0  0  0  0
  -15.9310   -2.8780   -1.0510 H   0  0  0  0  0  0  0  0  0  0  0  0
  -14.6240   -3.4730    1.2560 H   0  0  0  0  0  0  0  0  0  0  0  0
  -14.8890   -1.8120    1.7080 H   0  0  0  0  0  0  0  0  0  0  0  0
  -13.0100   -3.1420   -0.4390 H   0  0  0  0  0  0  0  0  0  0  0  0
  -13.0460   -1.4080   -0.2590 H   0  0  0  0  0  0  0  0  0  0  0  0
  -12.4620   -1.4370    2.1030 H   0  0  0  0  0  0  0  0  0  0  0  0
  -12.2670   -3.2060    1.9690 H   0  0  0  0  0  0  0  0  0  0  0  0
  -10.1710   -2.9510    0.6310 H   0  0  0  0  0  0  0  0  0  0  0  0
  -10.1810   -2.1640    2.1960 H   0  0  0  0  0  0  0  0  0  0  0  0
  -17.7530   -1.2050    0.5870 H   0  0  0  0  0  0  0  0  0  0  0  0
  -16.7640   -0.2480    0.5600 H   0  0  0  0  0  0  0  0  0  0  0  0
  -18.9410   -0.6640   -1.0050 H   0  0  0  0  0  0  0  0  0  0  0  0
  -17.9420   -1.1090   -2.2830 H   0  0  0  0  0  0  0  0  0  0  0  0
  -19.0100    1.3760   -1.8760 H   0  0  0  0  0  0  0  0  0  0  0  0
  -17.7360    1.5550   -0.6740 H   0  0  0  0  0  0  0  0  0  0  0  0
  -16.1020    1.6930   -2.8390 H   0  0  0  0  0  0  0  0  0  0  0  0
  -17.1660    2.9970   -2.3560 H   0  0  0  0  0  0  0  0  0  0  0  0
  -17.6510    1.1270   -4.7320 H   0  0  0  0  0  0  0  0  0  0  0  0
  -18.6480    2.5060   -4.2260 H   0  0  0  0  0  0  0  0  0  0  0  0
  -15.6270    2.6310   -4.9710 H   0  0  0  0  0  0  0  0  0  0  0  0
  -16.6670    4.0410   -4.5410 H   0  0  0  0  0  0  0  0  0  0  0  0
  -16.9880    3.1020   -6.0440 H   0  0  0  0  0  0  0  0  0  0  0  0
  -17.1430   -1.5910   -6.6020 C   0  0  0  0  0  0  0  0  0  0  0  0
  -16.9660   -2.3430   -5.2820 C   0  0  0  0  0  0  0  0  0  0  0  0
  -16.2220   -1.5180   -4.2110 C   0  0  0  0  0  0  0  0  0  0  0  0
  -14.7250   -1.2930   -4.4650 C   0  0  0  0  0  0  0  0  0  0  0  0
  -13.9380   -0.3100   -3.4790 C   0  0  1  0  0  0  0  0  0  0  0  0
  -12.5230   -0.9490   -3.3850 C   0  0  0  0  0  0  0  0  0  0  0  0
  -11.5170   -0.3290   -2.4080 C   0  0  0  0  0  0  0  0  0  0  0  0
  -10.4570   -1.3600   -2.0190 C   0  0  0  0  0  0  0  0  0  0  0  0
   -9.4820   -0.9190   -0.9140 C   0  0  0  0  0  0  0  0  0  0  0  0
  -14.5490   -0.1760   -2.0470 C   0  0  0  0  0  0  0  0  0  0  0  0
  -14.1710    1.1000   -1.1390 C   0  0  0  0  0  0  0  0  0  0  0  0
  -14.1430    0.8470    0.3890 C   0  0  0  0  0  0  0  0  0  0  0  0
  -14.3520    2.0210    1.3600 C   0  0  0  0  0  0  0  0  0  0  0  0
  -15.7980    2.5440    1.3740 C   0  0  0  0  0  0  0  0  0  0  0  0
  -16.0320    3.4920    2.5470 C   0  0  0  0  0  0  0  0  0  0  0  0
  -17.7240   -2.2190   -7.3090 H   0  0  0  0  0  0  0  0  0  0  0  0
  -16.1660   -1.3540   -7.0670 H   0  0  0  0  0  0  0  0  0  0  0  0
  -17.7060   -0.6510   -6.4320 H   0  0  0  0  0  0  0  0  0  0  0  0
  -17.9820   -2.5710   -4.8980 H   0  0  0  0  0  0  0  0  0  0  0  0
  -16.4400   -3.3080   -5.4580 H   0  0  0  0  0  0  0  0  0  0  0  0
  -16.7330   -0.5680   -4.0910 H   0  0  0  0  0  0  0  0  0  0  0  0
  -16.2890   -2.0910   -3.2650 H   0  0  0  0  0  0  0  0  0  0  0  0
  -14.5370   -0.9330   -5.4980 H   0  0  0  0  0  0  0  0  0  0  0  0
  -14.3240   -2.3300   -4.4200 H   0  0  0  0  0  0  0  0  0  0  0  0
  -13.9630    0.7060   -3.9230 H   0  0  0  0  0  0  0  0  0  0  0  0
  -12.0580   -1.0440   -4.3910 H   0  0  0  0  0  0  0  0  0  0  0  0
  -12.7060   -1.9810   -3.0070 H   0  0  0  0  0  0  0  0  0  0  0  0
  -11.0990    0.6010   -2.8420 H   0  0  0  0  0  0  0  0  0  0  0  0
  -11.9990   -0.1040   -1.4690 H   0  0  0  0  0  0  0  0  0  0  0  0
  -10.9410   -2.3030   -1.6780 H   0  0  0  0  0  0  0  0  0  0  0  0
   -9.8780   -1.5960   -2.9410 H   0  0  0  0  0  0  0  0  0  0  0  0
   -8.9750   -0.0070   -1.2760 H   0  0  0  0  0  0  0  0  0  0  0  0
   -8.7680   -1.7570   -0.8810 H   0  0  0  0  0  0  0  0  0  0  0  0
  -15.6120   -0.1430   -2.1290 H   0  0  0  0  0  0  0  0  0  0  0  0
  -14.4580   -1.1510   -1.6000 H   0  0  0  0  0  0  0  0  0  0  0  0
  -14.9020    1.8980   -1.2770 H   0  0  0  0  0  0  0  0  0  0  0  0
  -13.2270    1.5920   -1.4300 H   0  0  0  0  0  0  0  0  0  0  0  0
  -14.8480    0.1050    0.6750 H   0  0  0  0  0  0  0  0  0  0  0  0
  -13.1940    0.4110    0.6520 H   0  0  0  0  0  0  0  0  0  0  0  0
  -13.6270    2.8340    1.1680 H   0  0  0  0  0  0  0  0  0  0  0  0
  -14.1510    1.6080    2.3780 H   0  0  0  0  0  0  0  0  0  0  0  0
  -16.0240    3.0600    0.4150 H   0  0  0  0  0  0  0  0  0  0  0  0
  -16.5010    1.7010    1.5120 H   0  0  0  0  0  0  0  0  0  0  0  0
  -15.3480    4.3610    2.4980 H   0  0  0  0  0  0  0  0  0  0  0  0
  -15.8700    2.9510    3.5080 H   0  0  0  0  0  0  0  0  0  0  0  0
  -17.0840    3.8490    2.5310 H   0  0  0  0  0  0  0  0  0  0  0  0
   -5.2810   -2.0850   -6.7870 C   0  0  0  0  0  0  0  0  0  0  0  0
   -5.7970   -0.7770   -6.1950 C   0  0  0  0  0  0  0  0  0  0  0  0
   -4.6990    0.1690   -5.6410 C   0  0  0  0  0  0  0  0  0  0  0  0
   -3.8730   -0.5630   -4.5980 C   0  0  0  0  0  0  0  0  0  0  0  0
   -2.8940    0.2040   -3.6560 C   0  0  2  0  0  0  0  0  0  0  0  0
   -2.4980   -0.8630   -2.5930 C   0  0  0  0  0  0  0  0  0  0  0  0
   -1.4670   -0.4390   -1.5040 C   0  0  0  0  0  0  0  0  0  0  0  0
   -0.6720   -1.3180   -0.4230 C   0  0  0  0  0  0  0  0  0  0  0  0
    0.7640   -0.8050   -0.0790 C   0  0  0  0  0  0  0  0  0  0  0  0
   -3.5030    1.4310   -2.9670 C   0  0  0  0  0  0  0  0  0  0  0  0
   -3.4370    2.7670   -3.7090 C   0  0  0  0  0  0  0  0  0  0  0  0
   -3.8340    3.8700   -2.7080 C   0  0  0  0  0  0  0  0  0  0  0  0
   -3.8360    5.2910   -3.2540 C   0  0  0  0  0  0  0  0  0  0  0  0
   -4.9490    5.5050   -4.2830 C   0  0  0  0  0  0  0  0  0  0  0  0
   -5.0140    6.9710   -4.6900 C   0  0  0  0  0  0  0  0  0  0  0  0
   -6.1380   -2.6800   -7.1630 H   0  0  0  0  0  0  0  0  0  0  0  0
   -4.7760   -2.7080   -6.0200 H   0  0  0  0  0  0  0  0  0  0  0  0
   -4.5790   -1.8810   -7.6210 H   0  0  0  0  0  0  0  0  0  0  0  0
   -6.3840   -0.2250   -6.9580 H   0  0  0  0  0  0  0  0  0  0  0  0
   -6.4960   -1.0350   -5.3600 H   0  0  0  0  0  0  0  0  0  0  0  0
   -4.0290    0.5370   -6.4550 H   0  0  0  0  0  0  0  0  0  0  0  0
   -5.2440    1.0090   -5.1660 H   0  0  0  0  0  0  0  0  0  0  0  0
   -3.2920   -1.3590   -5.1090 H   0  0  0  0  0  0  0  0  0  0  0  0
   -4.6160   -1.0730   -3.9660 H   0  0  0  0  0  0  0  0  0  0  0  0
   -1.9760    0.5230   -4.1970 H   0  0  0  0  0  0  0  0  0  0  0  0
   -2.1660   -1.6540   -3.2370 H   0  0  0  0  0  0  0  0  0  0  0  0
   -3.3780   -1.2390   -2.1340 H   0  0  0  0  0  0  0  0  0  0  0  0
   -0.7760    0.0500   -2.1660 H   0  0  0  0  0  0  0  0  0  0  0  0
   -1.9950    0.2550   -0.8740 H   0  0  0  0  0  0  0  0  0  0  0  0
   -1.2870   -1.5250    0.4720 H   0  0  0  0  0  0  0  0  0  0  0  0
   -0.4220   -2.3620   -0.6350 H   0  0  0  0  0  0  0  0  0  0  0  0
    1.4250   -1.6740    0.1550 H   0  0  0  0  0  0  0  0  0  0  0  0
    0.7370   -0.2840    0.8760 H   0  0  0  0  0  0  0  0  0  0  0  0
   -4.5330    1.1930   -2.7160 H   0  0  0  0  0  0  0  0  0  0  0  0
   -2.9530    1.6240   -2.0410 H   0  0  0  0  0  0  0  0  0  0  0  0
   -4.0930    2.7600   -4.5950 H   0  0  0  0  0  0  0  0  0  0  0  0
   -2.3920    2.9640   -4.0370 H   0  0  0  0  0  0  0  0  0  0  0  0
   -4.8330    3.6500   -2.2700 H   0  0  0  0  0  0  0  0  0  0  0  0
   -3.0800    3.8600   -1.9000 H   0  0  0  0  0  0  0  0  0  0  0  0
   -2.8400    5.5380   -3.6830 H   0  0  0  0  0  0  0  0  0  0  0  0
   -4.0200    5.9690   -2.3890 H   0  0  0  0  0  0  0  0  0  0  0  0
   -4.7670    4.8810   -5.1780 H   0  0  0  0  0  0  0  0  0  0  0  0
   -5.9250    5.2230   -3.8300 H   0  0  0  0  0  0  0  0  0  0  0  0
   -4.0520    7.2870   -5.1480 H   0  0  0  0  0  0  0  0  0  0  0  0
   -5.2240    7.6060   -3.8050 H   0  0  0  0  0  0  0  0  0  0  0  0
   -5.8330    7.1100   -5.4300 H   0  0  0  0  0  0  0  0  0  0  0  0
   -5.3550   -7.0370   -5.1750 C   0  0  0  0  0  0  0  0  0  0  0  0
   -5.1470   -7.1370   -3.6750 C   0  0  0  0  0  0  0  0  0  0  0  0
   -4.3940   -5.9400   -3.0900 C   0  0  0  0  0  0  0  0  0  0  0  0
   -2.8680   -5.8150   -3.3320 C   0  0  0  0  0  0  0  0  0  0  0  0
   -2.2780   -4.4050   -2.9430 C   0  0  1  0  0  0  0  0  0  0  0  0
   -0.6510   -4.3700   -3.0670 C   0  0  0  0  0  0  0  0  0  0  0  0
   -0.0350   -2.9110   -3.2140 C   0  0  0  0  0  0  0  0  0  0  0  0
    1.3950   -2.3660   -2.8030 C   0  0  0  0  0  0  0  0  0  0  0  0
    1.4970   -0.7410   -2.6420 C   0  0  0  0  0  0  0  0  0  0  0  0
   -2.7970   -3.8820   -1.5290 C   0  0  0  0  0  0  0  0  0  0  0  0
   -4.3010   -3.4290   -1.3700 C   0  0  0  0  0  0  0  0  0  0  0  0
   -4.6390   -2.6080   -0.0920 C   0  0  0  0  0  0  0  0  0  0  0  0
   -4.8360   -1.0630   -0.1900 C   0  0  0  0  0  0  0  0  0  0  0  0
   -5.9470   -0.6200   -1.1610 C   0  0  0  0  0  0  0  0  0  0  0  0
   -6.4060    0.8450   -1.0000 C   0  0  0  0  0  0  0  0  0  0  0  0
   -5.9890   -7.8850   -5.5110 H   0  0  0  0  0  0  0  0  0  0  0  0
   -4.3760   -7.0750   -5.7110 H   0  0  0  0  0  0  0  0  0  0  0  0
   -5.8800   -6.0920   -5.4320 H   0  0  0  0  0  0  0  0  0  0  0  0
   -6.1730   -7.1200   -3.2160 H   0  0  0  0  0  0  0  0  0  0  0  0
   -4.6650   -8.0870   -3.3820 H   0  0  0  0  0  0  0  0  0  0  0  0
   -4.9130   -5.0240   -3.4480 H   0  0  0  0  0  0  0  0  0  0  0  0
   -4.4940   -6.0910   -2.0020 H   0  0  0  0  0  0  0  0  0  0  0  0
   -2.6520   -5.9630   -4.4140 H   0  0  0  0  0  0  0  0  0  0  0  0
   -2.3660   -6.6260   -2.7650 H   0  0  0  0  0  0  0  0  0  0  0  0
   -2.6750   -3.7170   -3.7180 H   0  0  0  0  0  0  0  0  0  0  0  0
   -0.3210   -4.9370   -3.9610 H   0  0  0  0  0  0  0  0  0  0  0  0
   -0.2440   -4.8810   -2.1710 H   0  0  0  0  0  0  0  0  0  0  0  0
   -0.3200   -2.4890   -4.2010 H   0  0  0  0  0  0  0  0  0  0  0  0
   -0.5720   -2.4410   -2.5240 H   0  0  0  0  0  0  0  0  0  0  0  0
    1.7860   -2.8480   -1.8820 H   0  0  0  0  0  0  0  0  0  0  0  0
    2.0580   -2.6890   -3.6360 H   0  0  0  0  0  0  0  0  0  0  0  0
    0.8540   -0.2780   -3.4180 H   0  0  0  0  0  0  0  0  0  0  0  0
    2.4880   -0.4820   -3.0760 H   0  0  0  0  0  0  0  0  0  0  0  0
   -2.5240   -4.5940   -0.7220 H   0  0  0  0  0  0  0  0  0  0  0  0
   -2.2620   -2.9910   -1.3110 H   0  0  0  0  0  0  0  0  0  0  0  0
   -4.9310   -4.3080   -1.2430 H   0  0  0  0  0  0  0  0  0  0  0  0
   -4.7000   -2.9200   -2.2690 H   0  0  0  0  0  0  0  0  0  0  0  0
   -5.6320   -2.9640    0.2560 H   0  0  0  0  0  0  0  0  0  0  0  0
   -3.9260   -2.8580    0.7240 H   0  0  0  0  0  0  0  0  0  0  0  0
   -5.1460   -0.7790    0.7880 H   0  0  0  0  0  0  0  0  0  0  0  0
   -3.9260   -0.4750   -0.3260 H   0  0  0  0  0  0  0  0  0  0  0  0
   -5.6280   -0.7760   -2.1910 H   0  0  0  0  0  0  0  0  0  0  0  0
   -6.8020   -1.2710   -1.0050 H   0  0  0  0  0  0  0  0  0  0  0  0
   -5.5820    1.5720   -1.0180 H   0  0  0  0  0  0  0  0  0  0  0  0
   -6.9190    1.0230   -0.0470 H   0  0  0  0  0  0  0  0  0  0  0  0
   -7.1170    1.1080   -1.8120 H   0  0  0  0  0  0  0  0  0  0  0  0
  1 59  1  1  0  0  0
  2  1  1  0  0  0  0
  2  6  1  1  0  0  0
  3  2  1  0  0  0  0
  3  4  1  1  0  0  0
  5  4  1  0  0  0  0
  6  5  1  0  0  0  0
  7  3  1  0  0  0  0
  7 11  1  6  0  0  0
  8  1  1  0  0  0  0
  8  7  1  0  0  0  0
  8  9  1  1  0  0  0
 10  9  1  1  0  0  0
 11 10  1  0  0  0  0
 12  5  1  0  0  0  0
 13  6  1  0  0  0  0
 14  9  1  0  0  0  0
 15151  1  6  0  0  0
 16 15  1  0  0  0  0
 16 20  1  6  0  0  0
 17 16  1  0  0  0  0
 17 18  1  6  0  0  0
 19 18  1  6  0  0  0
 20 19  1  0  0  0  0
 21 17  1  0  0  0  0
 21 25  1  6  0  0  0
 22 15  1  0  0  0  0
 22 21  1  0  0  0  0
 22 23  1  6  0  0  0
 24 23  1  1  0  0  0
 25 24  1  0  0  0  0
 26 20  1  0  0  0  0
 27 23  1  0  0  0  0
 28 29  1  6  0  0  0
 30 29  1  0  0  0  0
 31 30  1  0  0  0  0
 32 28  1  0  0  0  0
 32 31  1  1  0  0  0
 33 24  1  6  0  0  0
 33 32  1  0  0  0  0
 34 33  1  0  0  0  0
 34 35  1  1  0  0  0
 36 34  1  0  0  0  0
 37 28  1  0  0  0  0
 37 36  1  0  0  0  0
 38 36  1  0  0  0  0
 39 37  1  0  0  0  0
 40 41  1  1  0  0  0
 42 41  1  0  0  0  0
 43 42  1  0  0  0  0
 44 40  1  0  0  0  0
 44 43  1  1  0  0  0
 45 19  1  6  0  0  0
 45 44  1  0  0  0  0
 46 45  1  0  0  0  0
 46 47  1  1  0  0  0
 48 46  1  0  0  0  0
 49 10  1  0  0  0  0
 49 40  1  0  0  0  0
 49 48  1  1  0  0  0
 50 48  1  0  0  0  0
 52 51  1  0  0  0  0
 53 52  1  0  0  0  0
 54 53  1  0  0  0  0
 55 54  1  0  0  0  0
 55 75  1  1  0  0  0
 56 55  1  0  0  0  0
 57 56  1  0  0  0  0
 58 57  1  0  0  0  0
 59 58  1  0  0  0  0
 60 55  1  0  0  0  0
 61 60  1  0  0  0  0
 62 61  1  0  0  0  0
 63 62  1  0  0  0  0
 64 63  1  0  0  0  0
 65 64  1  0  0  0  0
 66 51  1  0  0  0  0
 67 51  1  0  0  0  0
 68 51  1  0  0  0  0
 69 52  1  0  0  0  0
 70 52  1  0  0  0  0
 71 53  1  0  0  0  0
 72 53  1  0  0  0  0
 73 54  1  0  0  0  0
 74 54  1  0  0  0  0
 76 56  1  0  0  0  0
 77 56  1  0  0  0  0
 78 57  1  0  0  0  0
 79 57  1  0  0  0  0
 80 58  1  0  0  0  0
 81 58  1  0  0  0  0
 82 59  1  0  0  0  0
 83 59  1  0  0  0  0
 84 60  1  0  0  0  0
 85 60  1  0  0  0  0
 86 61  1  0  0  0  0
 87 61  1  0  0  0  0
 88 62  1  0  0  0  0
 89 62  1  0  0  0  0
 90 63  1  0  0  0  0
 91 63  1  0  0  0  0
 92 64  1  0  0  0  0
 93 64  1  0  0  0  0
 94 65  1  0  0  0  0
 95 65  1  0  0  0  0
 96 65  1  0  0  0  0
 98 97  1  0  0  0  0
 99 98  1  0  0  0  0
100 99  1  0  0  0  0
101100  1  0  0  0  0
101121  1  6  0  0  0
102101  1  0  0  0  0
103102  1  0  0  0  0
104103  1  0  0  0  0
105  1  1  0  0  0  0
105104  1  0  0  0  0
106101  1  0  0  0  0
107106  1  0  0  0  0
108107  1  0  0  0  0
109108  1  0  0  0  0
110109  1  0  0  0  0
111110  1  0  0  0  0
112 97  1  0  0  0  0
113 97  1  0  0  0  0
114 97  1  0  0  0  0
115 98  1  0  0  0  0
116 98  1  0  0  0  0
117 99  1  0  0  0  0
118 99  1  0  0  0  0
119100  1  0  0  0  0
120100  1  0  0  0  0
122102  1  0  0  0  0
123102  1  0  0  0  0
124103  1  0  0  0  0
125103  1  0  0  0  0
126104  1  0  0  0  0
127104  1  0  0  0  0
128105  1  0  0  0  0
129105  1  0  0  0  0
130106  1  0  0  0  0
131106  1  0  0  0  0
132107  1  0  0  0  0
133107  1  0  0  0  0
134108  1  0  0  0  0
135108  1  0  0  0  0
136109  1  0  0  0  0
137109  1  0  0  0  0
138110  1  0  0  0  0
139110  1  0  0  0  0
140111  1  0  0  0  0
141111  1  0  0  0  0
142111  1  0  0  0  0
144143  1  0  0  0  0
145144  1  0  0  0  0
146145  1  0  0  0  0
147146  1  0  0  0  0
147167  1  6  0  0  0
148147  1  0  0  0  0
149148  1  0  0  0  0
150149  1  0  0  0  0
151150  1  0  0  0  0
152147  1  0  0  0  0
153152  1  0  0  0  0
154153  1  0  0  0  0
155154  1  0  0  0  0
156155  1  0  0  0  0
157156  1  0  0  0  0
158143  1  0  0  0  0
159143  1  0  0  0  0
160143  1  0  0  0  0
161144  1  0  0  0  0
162144  1  0  0  0  0
163145  1  0  0  0  0
164145  1  0  0  0  0
165146  1  0  0  0  0
166146  1  0  0  0  0
168148  1  0  0  0  0
169148  1  0  0  0  0
170149  1  0  0  0  0
171149  1  0  0  0  0
172150  1  0  0  0  0
173150  1  0  0  0  0
174151  1  0  0  0  0
175151  1  0  0  0  0
176152  1  0  0  0  0
177152  1  0  0  0  0
178153  1  0  0  0  0
179153  1  0  0  0  0
180154  1  0  0  0  0
181154  1  0  0  0  0
182155  1  0  0  0  0
183155  1  0  0  0  0
184156  1  0  0  0  0
185156  1  0  0  0  0
186157  1  0  0  0  0
187157  1  0  0  0  0
188157  1  0  0  0  0
190189  1  0  0  0  0
191190  1  0  0  0  0
192191  1  0  0  0  0
193192  1  0  0  0  0
193213  1  6  0  0  0
194193  1  0  0  0  0
195194  1  0  0  0  0
196195  1  0  0  0  0
197 15  1  0  0  0  0
197196  1  0  0  0  0
198193  1  0  0  0  0
199198  1  0  0  0  0
200199  1  0  0  0  0
201200  1  0  0  0  0
202201  1  0  0  0  0
203202  1  0  0  0  0
204189  1  0  0  0  0
205189  1  0  0  0  0
206189  1  0  0  0  0
207190  1  0  0  0  0
208190  1  0  0  0  0
209191  1  0  0  0  0
210191  1  0  0  0  0
211192  1  0  0  0  0
212192  1  0  0  0  0
214194  1  0  0  0  0
215194  1  0  0  0  0
216195  1  0  0  0  0
217195  1  0  0  0  0
218196  1  0  0  0  0
219196  1  0  0  0  0
220197  1  0  0  0  0
221197  1  0  0  0  0
222198  1  0  0  0  0
223198  1  0  0  0  0
224199  1  0  0  0  0
225199  1  0  0  0  0
226200  1  0  0  0  0
227200  1  0  0  0  0
228201  1  0  0  0  0
229201  1  0  0  0  0
230202  1  0  0  0  0
231202  1  0  0  0  0
232203  1  0  0  0  0
233203  1  0  0  0  0
234203  1  0  0  0  0
M  END
$$$$
