Compound
 OpenBabel05222314413D

146150  0  0  1  0  0  0  0  0999 V2000
   -0.1945    0.4735   -0.5958 C   0  0  2  0  0  3  0  0  0  0  0  0
    0.0155    1.3826    0.6390 C   0  0  2  0  0  3  0  0  0  0  0  0
    0.6056   -0.5900   -0.8388 C   0  0  2  0  0  3  0  0  0  0  0  0
    0.1281   -1.3773   -1.8953 C   0  0  1  0  0  3  0  0  0  0  0  0
    0.8790   -2.9829   -2.0602 S   0  0  0  0  0  0  0  0  0  0  0  0
    2.0154   -2.4295   -0.7537 C   0  0  0  0  0  2  0  0  0  0  0  0
    1.7579   -1.2303   -0.2217 C   0  0  0  0  0  3  0  0  0  0  0  0
   -0.9571   -0.8299   -2.3732 C   0  0  1  0  0  3  0  0  0  0  0  0
   -1.2438    0.4865   -1.7386 C   0  0  1  0  0  3  0  0  0  0  0  0
   -2.7049    0.3437   -1.5026 C   0  0  0  0  0  3  0  0  0  0  0  0
   -3.2995   -0.7320   -2.0564 C   0  0  2  0  0  3  0  0  0  0  0  0
   -2.2530   -1.7347   -3.1481 S   0  0  0  0  0  0  0  0  0  0  0  0
    2.3638   -0.8310    0.5580 H   0  0  0  0  0  0  0  0  0  0  0  0
   -3.2538    1.0437   -0.9211 H   0  0  0  0  0  0  0  0  0  0  0  0
   -5.5185   -0.1284   -1.3260 N   0  0  0  0  0  2  0  0  0  0  0  0
   -6.8950   -0.3507   -0.9878 C   0  0  0  0  0  3  0  0  0  0  0  0
   -7.4475   -1.5758   -1.0734 C   0  0  0  0  0  2  0  0  0  0  0  0
   -6.6036   -2.6845   -1.5269 C   0  0  1  0  0  3  0  0  0  0  0  0
   -7.0187   -3.9729   -1.5970 N   0  0  0  0  0  2  0  0  0  0  0  0
   -5.6541   -4.7476   -2.1158 S   0  0  0  0  0  0  0  0  0  0  0  0
   -4.5438   -3.5308   -2.2630 N   0  0  0  0  0  2  0  0  0  0  0  0
   -5.2604   -2.4381   -1.8952 C   0  0  2  0  0  3  0  0  0  0  0  0
   -4.7276   -1.0556   -1.7776 C   0  0  2  0  0  3  0  0  0  0  0  0
   -7.5031    0.4805   -0.6566 H   0  0  0  0  0  0  0  0  0  0  0  0
   -1.1540    2.2466    1.2023 C   0  0  0  0  0  0  0  0  0  0  0  0
   -2.4929    1.6353    1.7815 C   0  0  1  0  0  0  0  0  0  0  0  0
   -2.3492    0.2469    2.4828 C   0  0  0  0  0  0  0  0  0  0  0  0
   -2.5124   -0.9061    1.4685 C   0  0  0  0  0  0  0  0  0  0  0  0
   -2.5785   -2.3174    2.0511 C   0  0  0  0  0  0  0  0  0  0  0  0
   -1.2499   -2.7634    2.6607 C   0  0  0  0  0  0  0  0  0  0  0  0
   -1.2978   -4.2552    2.9923 C   0  0  0  0  0  0  0  0  0  0  0  0
   -0.0666   -4.8129    3.7360 C   0  0  0  0  0  0  0  0  0  0  0  0
    1.3008   -4.6590    3.0391 C   0  0  0  0  0  0  0  0  0  0  0  0
    1.9626   -3.2892    3.2402 C   0  0  0  0  0  0  0  0  0  0  0  0
   -3.1529    2.6424    2.7697 C   0  0  0  0  0  0  0  0  0  0  0  0
   -3.6130    3.9856    2.1563 C   0  0  0  0  0  0  0  0  0  0  0  0
   -4.7563    3.9145    1.1131 C   0  0  0  0  0  0  0  0  0  0  0  0
   -6.0518    3.2847    1.6721 C   0  0  0  0  0  0  0  0  0  0  0  0
   -7.2637    3.3643    0.7169 C   0  0  0  0  0  0  0  0  0  0  0  0
   -7.7956    4.8020    0.5369 C   0  0  0  0  0  0  0  0  0  0  0  0
   -9.0283    4.9131   -0.3848 C   0  0  0  0  0  0  0  0  0  0  0  0
  -10.2769    4.1892    0.1560 C   0  0  0  0  0  0  0  0  0  0  0  0
  -11.5124    4.3435   -0.7528 C   0  0  0  0  0  0  0  0  0  0  0  0
  -12.0334    5.7789   -0.8433 C   0  0  0  0  0  0  0  0  0  0  0  0
   -1.3819    3.0801    0.5052 H   0  0  0  0  0  0  0  0  0  0  0  0
   -0.6879    2.6798    2.0982 H   0  0  0  0  0  0  0  0  0  0  0  0
   -3.2598    1.5089    1.0191 H   0  0  0  0  0  0  0  0  0  0  0  0
   -1.4195    0.1929    3.0879 H   0  0  0  0  0  0  0  0  0  0  0  0
   -3.2090    0.1021    3.1729 H   0  0  0  0  0  0  0  0  0  0  0  0
   -1.7094   -0.8990    0.7289 H   0  0  0  0  0  0  0  0  0  0  0  0
   -3.4798   -0.7548    0.9423 H   0  0  0  0  0  0  0  0  0  0  0  0
   -2.8137   -2.9955    1.1988 H   0  0  0  0  0  0  0  0  0  0  0  0
   -3.4039   -2.3994    2.7918 H   0  0  0  0  0  0  0  0  0  0  0  0
   -1.0338   -2.1614    3.5711 H   0  0  0  0  0  0  0  0  0  0  0  0
   -0.4693   -2.6057    1.8911 H   0  0  0  0  0  0  0  0  0  0  0  0
   -2.1811   -4.4587    3.6336 H   0  0  0  0  0  0  0  0  0  0  0  0
   -1.4276   -4.8210    2.0415 H   0  0  0  0  0  0  0  0  0  0  0  0
   -0.2642   -5.9040    3.8280 H   0  0  0  0  0  0  0  0  0  0  0  0
   -0.0069   -4.4027    4.7671 H   0  0  0  0  0  0  0  0  0  0  0  0
    1.9913   -5.3867    3.5181 H   0  0  0  0  0  0  0  0  0  0  0  0
    1.2225   -4.9244    1.9625 H   0  0  0  0  0  0  0  0  0  0  0  0
    1.4146   -2.4500    2.7877 H   0  0  0  0  0  0  0  0  0  0  0  0
    2.9726   -3.3013    2.7804 H   0  0  0  0  0  0  0  0  0  0  0  0
    2.0761   -3.0828    4.3257 H   0  0  0  0  0  0  0  0  0  0  0  0
   -2.4348    2.8533    3.5913 H   0  0  0  0  0  0  0  0  0  0  0  0
   -4.0439    2.1812    3.2442 H   0  0  0  0  0  0  0  0  0  0  0  0
   -2.7438    4.5034    1.7027 H   0  0  0  0  0  0  0  0  0  0  0  0
   -3.9720    4.6252    2.9925 H   0  0  0  0  0  0  0  0  0  0  0  0
   -4.4327    3.3581    0.2077 H   0  0  0  0  0  0  0  0  0  0  0  0
   -4.9567    4.9623    0.8109 H   0  0  0  0  0  0  0  0  0  0  0  0
   -5.8527    2.2103    1.8708 H   0  0  0  0  0  0  0  0  0  0  0  0
   -6.3315    3.7709    2.6321 H   0  0  0  0  0  0  0  0  0  0  0  0
   -7.0008    2.9204   -0.2674 H   0  0  0  0  0  0  0  0  0  0  0  0
   -8.0679    2.7510    1.1736 H   0  0  0  0  0  0  0  0  0  0  0  0
   -7.0012    5.4305    0.0870 H   0  0  0  0  0  0  0  0  0  0  0  0
   -8.0545    5.2282    1.5313 H   0  0  0  0  0  0  0  0  0  0  0  0
   -9.2549    5.9955   -0.4787 H   0  0  0  0  0  0  0  0  0  0  0  0
   -8.7747    4.5213   -1.3937 H   0  0  0  0  0  0  0  0  0  0  0  0
  -10.5252    4.5648    1.1727 H   0  0  0  0  0  0  0  0  0  0  0  0
  -10.0627    3.1031    0.2262 H   0  0  0  0  0  0  0  0  0  0  0  0
  -12.3297    3.7179   -0.3316 H   0  0  0  0  0  0  0  0  0  0  0  0
  -11.2809    3.9661   -1.7722 H   0  0  0  0  0  0  0  0  0  0  0  0
  -11.2885    6.4539   -1.3110 H   0  0  0  0  0  0  0  0  0  0  0  0
  -12.2934    6.1590    0.1676 H   0  0  0  0  0  0  0  0  0  0  0  0
  -12.9490    5.7991   -1.4723 H   0  0  0  0  0  0  0  0  0  0  0  0
    1.3590    2.1769    0.4758 C   0  0  0  0  0  0  0  0  0  0  0  0
    2.0701    2.8948    1.6873 C   0  0  2  0  0  0  0  0  0  0  0  0
    1.5927    4.3339    2.0376 C   0  0  0  0  0  0  0  0  0  0  0  0
    1.7427    5.3429    0.8864 C   0  0  0  0  0  0  0  0  0  0  0  0
    1.6677    6.8066    1.3696 C   0  0  0  0  0  0  0  0  0  0  0  0
    0.3387    7.1777    2.0440 C   0  0  0  0  0  0  0  0  0  0  0  0
    0.3369    8.6577    2.4505 C   0  0  0  0  0  0  0  0  0  0  0  0
   -0.8609    9.1299    3.3028 C   0  0  0  0  0  0  0  0  0  0  0  0
   -2.2590    9.0252    2.6646 C   0  0  0  0  0  0  0  0  0  0  0  0
   -2.8961    7.6355    2.7632 C   0  0  0  0  0  0  0  0  0  0  0  0
    2.1456    2.0817    3.0120 C   0  0  0  0  0  0  0  0  0  0  0  0
    2.7184    0.6621    2.9312 C   0  0  0  0  0  0  0  0  0  0  0  0
    4.1104    0.5231    2.2748 C   0  0  0  0  0  0  0  0  0  0  0  0
    5.2387    1.2425    3.0385 C   0  0  0  0  0  0  0  0  0  0  0  0
    6.6194    1.1050    2.3562 C   0  0  0  0  0  0  0  0  0  0  0  0
    7.1418   -0.3457    2.3093 C   0  0  0  0  0  0  0  0  0  0  0  0
    8.4961   -0.4993    1.5886 C   0  0  0  0  0  0  0  0  0  0  0  0
    9.6647    0.2108    2.2951 C   0  0  0  0  0  0  0  0  0  0  0  0
   11.0098    0.0301    1.5661 C   0  0  0  0  0  0  0  0  0  0  0  0
   11.5048   -1.4177    1.5375 C   0  0  0  0  0  0  0  0  0  0  0  0
    1.2726    2.8817   -0.3769 H   0  0  0  0  0  0  0  0  0  0  0  0
    2.0995    1.4278    0.1430 H   0  0  0  0  0  0  0  0  0  0  0  0
    3.1198    3.0469    1.3490 H   0  0  0  0  0  0  0  0  0  0  0  0
    0.5626    4.3589    2.4350 H   0  0  0  0  0  0  0  0  0  0  0  0
    2.2605    4.6946    2.8524 H   0  0  0  0  0  0  0  0  0  0  0  0
    0.9783    5.1490    0.1052 H   0  0  0  0  0  0  0  0  0  0  0  0
    2.7504    5.2214    0.4318 H   0  0  0  0  0  0  0  0  0  0  0  0
    1.8251    7.4670    0.4889 H   0  0  0  0  0  0  0  0  0  0  0  0
    2.4998    6.9909    2.0857 H   0  0  0  0  0  0  0  0  0  0  0  0
    0.1941    6.5591    2.9547 H   0  0  0  0  0  0  0  0  0  0  0  0
   -0.4655    6.9912    1.3097 H   0  0  0  0  0  0  0  0  0  0  0  0
    1.2453    8.8542    3.0632 H   0  0  0  0  0  0  0  0  0  0  0  0
    0.4054    9.2821    1.5329 H   0  0  0  0  0  0  0  0  0  0  0  0
   -0.6721   10.2123    3.4800 H   0  0  0  0  0  0  0  0  0  0  0  0
   -0.8649    8.6347    4.2984 H   0  0  0  0  0  0  0  0  0  0  0  0
   -2.9330    9.6951    3.2423 H   0  0  0  0  0  0  0  0  0  0  0  0
   -2.2337    9.3920    1.6160 H   0  0  0  0  0  0  0  0  0  0  0  0
   -2.3514    6.8593    2.2094 H   0  0  0  0  0  0  0  0  0  0  0  0
   -3.9240    7.6745    2.3463 H   0  0  0  0  0  0  0  0  0  0  0  0
   -2.9630    7.3248    3.8278 H   0  0  0  0  0  0  0  0  0  0  0  0
    1.1299    2.0065    3.4560 H   0  0  0  0  0  0  0  0  0  0  0  0
    2.7723    2.6474    3.7352 H   0  0  0  0  0  0  0  0  0  0  0  0
    1.9789    0.0543    2.3881 H   0  0  0  0  0  0  0  0  0  0  0  0
    2.7632    0.2401    3.9585 H   0  0  0  0  0  0  0  0  0  0  0  0
    4.0797    0.8958    1.2306 H   0  0  0  0  0  0  0  0  0  0  0  0
    4.3297   -0.5629    2.2407 H   0  0  0  0  0  0  0  0  0  0  0  0
    5.0028    2.3272    3.0832 H   0  0  0  0  0  0  0  0  0  0  0  0
    5.2986    0.8553    4.0784 H   0  0  0  0  0  0  0  0  0  0  0  0
    6.5579    1.5139    1.3238 H   0  0  0  0  0  0  0  0  0  0  0  0
    7.3339    1.7265    2.9342 H   0  0  0  0  0  0  0  0  0  0  0  0
    6.4228   -0.9727    1.7453 H   0  0  0  0  0  0  0  0  0  0  0  0
    7.2239   -0.7495    3.3423 H   0  0  0  0  0  0  0  0  0  0  0  0
    8.7099   -1.5869    1.5462 H   0  0  0  0  0  0  0  0  0  0  0  0
    8.4031   -0.1218    0.5463 H   0  0  0  0  0  0  0  0  0  0  0  0
    9.7600   -0.1622    3.3383 H   0  0  0  0  0  0  0  0  0  0  0  0
    9.4600    1.3007    2.3299 H   0  0  0  0  0  0  0  0  0  0  0  0
   11.7748    0.6360    2.0990 H   0  0  0  0  0  0  0  0  0  0  0  0
   10.9300    0.4143    0.5259 H   0  0  0  0  0  0  0  0  0  0  0  0
   10.8176   -2.0712    0.9637 H   0  0  0  0  0  0  0  0  0  0  0  0
   11.6106   -1.8093    2.5716 H   0  0  0  0  0  0  0  0  0  0  0  0
   12.4984   -1.4571    1.0422 H   0  0  0  0  0  0  0  0  0  0  0  0
  1  2  1  6  0  0  0
  2 25  1  6  0  0  0
  3  1  1  0  0  0  0
  3  7  1  1  0  0  0
  4  3  1  0  0  0  0
  4  5  1  1  0  0  0
  6  5  1  0  0  0  0
  7  6  1  0  0  0  0
  8  4  1  0  0  0  0
  8 12  1  6  0  0  0
  9  1  1  0  0  0  0
  9  8  1  0  0  0  0
  9 10  1  1  0  0  0
 11 10  1  6  0  0  0
 12 11  1  0  0  0  0
 13  7  1  0  0  0  0
 14 10  1  0  0  0  0
 16 15  1  0  0  0  0
 17 16  1  0  0  0  0
 18 17  1  6  0  0  0
 19 18  1  0  0  0  0
 20 19  1  0  0  0  0
 21 20  1  0  0  0  0
 22 18  1  0  0  0  0
 22 21  1  1  0  0  0
 23 11  1  0  0  0  0
 23 15  1  1  0  0  0
 23 22  1  0  0  0  0
 24 16  1  0  0  0  0
 26 25  1  0  0  0  0
 26 47  1  6  0  0  0
 27 26  1  0  0  0  0
 28 27  1  0  0  0  0
 29 28  1  0  0  0  0
 30 29  1  0  0  0  0
 31 30  1  0  0  0  0
 32 31  1  0  0  0  0
 33 32  1  0  0  0  0
 34 33  1  0  0  0  0
 35 26  1  0  0  0  0
 36 35  1  0  0  0  0
 37 36  1  0  0  0  0
 38 37  1  0  0  0  0
 39 38  1  0  0  0  0
 40 39  1  0  0  0  0
 41 40  1  0  0  0  0
 42 41  1  0  0  0  0
 43 42  1  0  0  0  0
 44 43  1  0  0  0  0
 45 25  1  0  0  0  0
 46 25  1  0  0  0  0
 48 27  1  0  0  0  0
 49 27  1  0  0  0  0
 50 28  1  0  0  0  0
 51 28  1  0  0  0  0
 52 29  1  0  0  0  0
 53 29  1  0  0  0  0
 54 30  1  0  0  0  0
 55 30  1  0  0  0  0
 56 31  1  0  0  0  0
 57 31  1  0  0  0  0
 58 32  1  0  0  0  0
 59 32  1  0  0  0  0
 60 33  1  0  0  0  0
 61 33  1  0  0  0  0
 62 34  1  0  0  0  0
 63 34  1  0  0  0  0
 64 34  1  0  0  0  0
 65 35  1  0  0  0  0
 66 35  1  0  0  0  0
 67 36  1  0  0  0  0
 68 36  1  0  0  0  0
 69 37  1  0  0  0  0
 70 37  1  0  0  0  0
 71 38  1  0  0  0  0
 72 38  1  0  0  0  0
 73 39  1  0  0  0  0
 74 39  1  0  0  0  0
 75 40  1  0  0  0  0
 76 40  1  0  0  0  0
 77 41  1  0  0  0  0
 78 41  1  0  0  0  0
 79 42  1  0  0  0  0
 80 42  1  0  0  0  0
 81 43  1  0  0  0  0
 82 43  1  0  0  0  0
 83 44  1  0  0  0  0
 84 44  1  0  0  0  0
 85 44  1  0  0  0  0
 86  2  1  0  0  0  0
 87 86  1  0  0  0  0
 87108  1  1  0  0  0
 88 87  1  0  0  0  0
 89 88  1  0  0  0  0
 90 89  1  0  0  0  0
 91 90  1  0  0  0  0
 92 91  1  0  0  0  0
 93 92  1  0  0  0  0
 94 93  1  0  0  0  0
 95 94  1  0  0  0  0
 96 87  1  0  0  0  0
 97 96  1  0  0  0  0
 98 97  1  0  0  0  0
 99 98  1  0  0  0  0
100 99  1  0  0  0  0
101100  1  0  0  0  0
102101  1  0  0  0  0
103102  1  0  0  0  0
104103  1  0  0  0  0
105104  1  0  0  0  0
106 86  1  0  0  0  0
107 86  1  0  0  0  0
109 88  1  0  0  0  0
110 88  1  0  0  0  0
111 89  1  0  0  0  0
112 89  1  0  0  0  0
113 90  1  0  0  0  0
114 90  1  0  0  0  0
115 91  1  0  0  0  0
116 91  1  0  0  0  0
117 92  1  0  0  0  0
118 92  1  0  0  0  0
119 93  1  0  0  0  0
120 93  1  0  0  0  0
121 94  1  0  0  0  0
122 94  1  0  0  0  0
123 95  1  0  0  0  0
124 95  1  0  0  0  0
125 95  1  0  0  0  0
126 96  1  0  0  0  0
127 96  1  0  0  0  0
128 97  1  0  0  0  0
129 97  1  0  0  0  0
130 98  1  0  0  0  0
131 98  1  0  0  0  0
132 99  1  0  0  0  0
133 99  1  0  0  0  0
134100  1  0  0  0  0
135100  1  0  0  0  0
136101  1  0  0  0  0
137101  1  0  0  0  0
138102  1  0  0  0  0
139102  1  0  0  0  0
140103  1  0  0  0  0
141103  1  0  0  0  0
142104  1  0  0  0  0
143104  1  0  0  0  0
144105  1  0  0  0  0
145105  1  0  0  0  0
146105  1  0  0  0  0
M  END
$$$$
