Compound
 OpenBabel07072311213D

367380  0  0  1  0  0  0  0  0999 V2000
    9.5941    9.7012    9.4121 C   0  0  0  0  0  0  0  0  0  0  0  0
    8.7328   10.1018   10.6249 C   0  0  1  0  0  3  0  0  0  0  0  0
    9.4894   10.3667   11.8631 C   0  0  1  0  0  3  0  0  0  0  0  0
    8.6548   11.7486   12.6501 S   0  0  0  0  0  0  0  0  0  0  0  0
    7.1747   10.9577   11.9716 C   0  0  0  0  0  3  0  0  0  0  0  0
    7.4305   10.3044   10.7791 C   0  0  0  0  0  3  0  0  0  0  0  0
   10.8439   10.4025   11.3290 C   0  0  2  0  0  3  0  0  0  0  0  0
   10.9579    9.9439   10.0505 C   0  0  2  0  0  3  0  0  0  0  0  0
   12.2945    9.8190    9.6308 C   0  0  0  0  0  3  0  0  0  0  0  0
   13.1921   10.2417   10.6406 C   0  0  1  0  0  3  0  0  0  0  0  0
   12.3191   10.7213   12.0165 S   0  0  0  0  0  0  0  0  0  0  0  0
    6.6604   10.1259   10.0484 H   0  0  0  0  0  0  0  0  0  0  0  0
   12.5980    9.4583    8.6554 H   0  0  0  0  0  0  0  0  0  0  0  0
   15.3085    9.3233    9.7824 N   0  0  0  0  0  2  0  0  0  0  0  0
   16.6689    9.1887    9.7556 C   0  0  0  0  0  3  0  0  0  0  0  0
   17.4851    9.9974   10.5574 C   0  0  0  0  0  3  0  0  0  0  0  0
   16.8777   10.9398   11.3763 C   0  0  2  0  0  3  0  0  0  0  0  0
   17.5658   11.7926   12.1767 N   0  0  0  0  0  2  0  0  0  0  0  0
   16.3532   12.6604   12.8881 S   0  0  0  0  0  0  0  0  0  0  0  0
   14.9770   12.0100   12.2453 N   0  0  0  0  0  2  0  0  0  0  0  0
   15.4628   11.0521   11.4127 C   0  0  1  0  0  3  0  0  0  0  0  0
   14.6735   10.2160   10.5968 C   0  0  2  0  0  3  0  0  0  0  0  0
   17.1224    8.4458    9.1139 H   0  0  0  0  0  0  0  0  0  0  0  0
    9.4749   10.7496    8.2444 C   0  0  0  0  0  0  0  0  0  0  0  0
    8.1091   10.8241    7.5508 C   0  0  0  0  0  0  0  0  0  0  0  0
    7.9594   11.8608    6.4295 C   0  0  0  0  0  0  0  0  0  0  0  0
    8.1313   13.3341    6.8342 C   0  0  0  0  0  0  0  0  0  0  0  0
    7.3586   13.7204    8.1118 C   0  0  0  0  0  0  0  0  0  0  0  0
    7.2929   15.2418    8.3093 C   0  0  0  0  0  0  0  0  0  0  0  0
    6.1836   15.8601    7.4413 C   0  0  0  0  0  0  0  0  0  0  0  0
    6.1392   17.3845    7.5766 C   0  0  0  0  0  0  0  0  0  0  0  0
    4.8856   17.9475    6.8974 C   0  0  0  0  0  0  0  0  0  0  0  0
    4.8406   19.4760    6.6923 C   0  0  0  0  0  0  0  0  0  0  0  0
    4.9702   20.3855    7.9313 C   0  0  0  0  0  0  0  0  0  0  0  0
    6.4280   20.5900    8.3999 C   0  0  0  0  0  0  0  0  0  0  0  0
    6.6069   21.5442    9.5976 C   0  0  0  0  0  0  0  0  0  0  0  0
    6.5980   23.0646    9.3076 C   0  0  0  0  0  0  0  0  0  0  0  0
    5.2898   23.7114    8.8291 C   0  0  0  0  0  0  0  0  0  0  0  0
    4.1266   23.4786    9.7911 C   0  0  0  0  0  0  0  0  0  0  0  0
    9.7082   11.7568    8.6505 H   0  0  0  0  0  0  0  0  0  0  0  0
   10.2396   10.5177    7.4695 H   0  0  0  0  0  0  0  0  0  0  0  0
    7.9162    9.8603    7.0800 H   0  0  0  0  0  0  0  0  0  0  0  0
    7.3171   11.0390    8.2767 H   0  0  0  0  0  0  0  0  0  0  0  0
    8.6508   11.6307    5.5904 H   0  0  0  0  0  0  0  0  0  0  0  0
    6.9201   11.7441    6.0466 H   0  0  0  0  0  0  0  0  0  0  0  0
    9.2060   13.5664    6.9973 H   0  0  0  0  0  0  0  0  0  0  0  0
    7.7879   13.9311    5.9637 H   0  0  0  0  0  0  0  0  0  0  0  0
    6.3238   13.3129    8.1132 H   0  0  0  0  0  0  0  0  0  0  0  0
    7.9014   13.2721    8.9716 H   0  0  0  0  0  0  0  0  0  0  0  0
    8.2890   15.6958    8.1108 H   0  0  0  0  0  0  0  0  0  0  0  0
    7.0243   15.4498    9.3683 H   0  0  0  0  0  0  0  0  0  0  0  0
    6.3215   15.6093    6.3688 H   0  0  0  0  0  0  0  0  0  0  0  0
    5.2138   15.4308    7.7802 H   0  0  0  0  0  0  0  0  0  0  0  0
    6.0939   17.6404    8.6547 H   0  0  0  0  0  0  0  0  0  0  0  0
    7.0592   17.8014    7.1119 H   0  0  0  0  0  0  0  0  0  0  0  0
    4.7952   17.5036    5.8813 H   0  0  0  0  0  0  0  0  0  0  0  0
    3.9986   17.6237    7.4870 H   0  0  0  0  0  0  0  0  0  0  0  0
    5.5931   19.7875    5.9358 H   0  0  0  0  0  0  0  0  0  0  0  0
    3.8375   19.6688    6.2498 H   0  0  0  0  0  0  0  0  0  0  0  0
    4.3176   20.0183    8.7528 H   0  0  0  0  0  0  0  0  0  0  0  0
    4.5799   21.3587    7.6085 H   0  0  0  0  0  0  0  0  0  0  0  0
    6.8190   19.6218    8.7423 H   0  0  0  0  0  0  0  0  0  0  0  0
    7.0738   20.9295    7.5612 H   0  0  0  0  0  0  0  0  0  0  0  0
    7.6325   21.3501    9.9848 H   0  0  0  0  0  0  0  0  0  0  0  0
    5.9047   21.2743   10.4144 H   0  0  0  0  0  0  0  0  0  0  0  0
    6.8822   23.5702   10.2567 H   0  0  0  0  0  0  0  0  0  0  0  0
    7.3918   23.2922    8.5628 H   0  0  0  0  0  0  0  0  0  0  0  0
    5.4628   24.8067    8.7502 H   0  0  0  0  0  0  0  0  0  0  0  0
    5.0285   23.3757    7.8108 H   0  0  0  0  0  0  0  0  0  0  0  0
    4.3784   23.8694   10.7998 H   0  0  0  0  0  0  0  0  0  0  0  0
    3.2264   24.0096    9.4171 H   0  0  0  0  0  0  0  0  0  0  0  0
    3.8853   22.3987    9.8671 H   0  0  0  0  0  0  0  0  0  0  0  0
    9.3933    8.2113    8.9452 C   0  0  0  0  0  0  0  0  0  0  0  0
    7.9184    7.7366    8.9753 C   0  0  0  0  0  0  0  0  0  0  0  0
    7.6314    6.3216    8.4323 C   0  0  0  0  0  0  0  0  0  0  0  0
    7.6376    6.1330    6.8966 C   0  0  0  0  0  0  0  0  0  0  0  0
    6.7581    7.1706    6.1677 C   0  0  0  0  0  0  0  0  0  0  0  0
    6.3897    6.8064    4.7220 C   0  0  0  0  0  0  0  0  0  0  0  0
    5.2359    5.7917    4.6781 C   0  0  0  0  0  0  0  0  0  0  0  0
    4.8086    5.4754    3.2383 C   0  0  0  0  0  0  0  0  0  0  0  0
    3.5436    4.6074    3.2377 C   0  0  0  0  0  0  0  0  0  0  0  0
    3.1382    3.9681    1.8929 C   0  0  0  0  0  0  0  0  0  0  0  0
    2.7670    4.8883    0.7115 C   0  0  0  0  0  0  0  0  0  0  0  0
    3.9799    5.4821   -0.0332 C   0  0  0  0  0  0  0  0  0  0  0  0
    3.6326    6.3216   -1.2811 C   0  0  0  0  0  0  0  0  0  0  0  0
    3.3329    5.5593   -2.5960 C   0  0  0  0  0  0  0  0  0  0  0  0
    2.0601    4.7022   -2.6770 C   0  0  0  0  0  0  0  0  0  0  0  0
    0.7893    5.4971   -2.3838 C   0  0  0  0  0  0  0  0  0  0  0  0
    9.8510    8.0788    7.9412 H   0  0  0  0  0  0  0  0  0  0  0  0
    9.9306    7.5316    9.6437 H   0  0  0  0  0  0  0  0  0  0  0  0
    7.6243    7.7167   10.0464 H   0  0  0  0  0  0  0  0  0  0  0  0
    7.2292    8.4352    8.4806 H   0  0  0  0  0  0  0  0  0  0  0  0
    8.3040    5.5779    8.9118 H   0  0  0  0  0  0  0  0  0  0  0  0
    6.5939    6.0811    8.7549 H   0  0  0  0  0  0  0  0  0  0  0  0
    8.6682    6.1788    6.4823 H   0  0  0  0  0  0  0  0  0  0  0  0
    7.2456    5.1099    6.7162 H   0  0  0  0  0  0  0  0  0  0  0  0
    5.8163    7.3703    6.7252 H   0  0  0  0  0  0  0  0  0  0  0  0
    7.3445    8.0988    6.1283 H   0  0  0  0  0  0  0  0  0  0  0  0
    7.2855    6.4558    4.1653 H   0  0  0  0  0  0  0  0  0  0  0  0
    6.0162    7.7322    4.2293 H   0  0  0  0  0  0  0  0  0  0  0  0
    5.5226    4.8491    5.1895 H   0  0  0  0  0  0  0  0  0  0  0  0
    4.3679    6.2365    5.2157 H   0  0  0  0  0  0  0  0  0  0  0  0
    4.5829    6.4317    2.7283 H   0  0  0  0  0  0  0  0  0  0  0  0
    5.6436    4.9494    2.7272 H   0  0  0  0  0  0  0  0  0  0  0  0
    3.7097    3.7550    3.9328 H   0  0  0  0  0  0  0  0  0  0  0  0
    2.6962    5.2084    3.6375 H   0  0  0  0  0  0  0  0  0  0  0  0
    3.9115    3.2415    1.5626 H   0  0  0  0  0  0  0  0  0  0  0  0
    2.2224    3.3817    2.1308 H   0  0  0  0  0  0  0  0  0  0  0  0
    2.0602    5.6804    1.0410 H   0  0  0  0  0  0  0  0  0  0  0  0
    2.2276    4.2373    0.0124 H   0  0  0  0  0  0  0  0  0  0  0  0
    4.4924    6.1722    0.6517 H   0  0  0  0  0  0  0  0  0  0  0  0
    4.7049    4.6890   -0.3178 H   0  0  0  0  0  0  0  0  0  0  0  0
    4.5508    6.9065   -1.5133 H   0  0  0  0  0  0  0  0  0  0  0  0
    2.8390    7.0611   -1.0426 H   0  0  0  0  0  0  0  0  0  0  0  0
    3.2571    6.3263   -3.3982 H   0  0  0  0  0  0  0  0  0  0  0  0
    4.2035    4.9123   -2.8413 H   0  0  0  0  0  0  0  0  0  0  0  0
    1.9872    4.3007   -3.7112 H   0  0  0  0  0  0  0  0  0  0  0  0
    2.1303    3.8191   -2.0186 H   0  0  0  0  0  0  0  0  0  0  0  0
    0.6984    6.3499   -3.0895 H   0  0  0  0  0  0  0  0  0  0  0  0
   -0.0955    4.8376   -2.5068 H   0  0  0  0  0  0  0  0  0  0  0  0
    0.7935    5.8816   -1.3436 H   0  0  0  0  0  0  0  0  0  0  0  0
    6.1769   11.2518   12.2670 H   0  0  0  0  0  0  0  0  0  0  0  0
   18.5629    9.8931   10.5374 H   0  0  0  0  0  0  0  0  0  0  0  0
  -11.0726  -10.0755  -10.4795 C   0  0  0  0  0  0  0  0  0  0  0  0
  -12.2338   -9.6199   -9.5587 C   0  0  1  0  0  3  0  0  0  0  0  0
  -11.8294   -9.0410   -8.4560 C   0  0  1  0  0  3  0  0  0  0  0  0
  -13.0570   -8.4681   -7.3007 S   0  0  0  0  0  0  0  0  0  0  0  0
  -14.2485   -9.1152   -8.4916 C   0  0  0  0  0  3  0  0  0  0  0  0
  -13.6891   -9.6690   -9.6309 C   0  0  0  0  0  3  0  0  0  0  0  0
  -10.4127   -9.0616   -8.4315 C   0  0  2  0  0  3  0  0  0  0  0  0
   -9.9436   -9.7008   -9.5329 C   0  0  1  0  0  3  0  0  0  0  0  0
   -8.5717   -9.8601   -9.5023 C   0  0  0  0  0  3  0  0  0  0  0  0
   -8.0427   -9.2695   -8.3411 C   0  0  1  0  0  3  0  0  0  0  0  0
   -9.2314   -8.5612   -7.3661 S   0  0  0  0  0  0  0  0  0  0  0  0
  -14.2747  -10.1005  -10.4296 H   0  0  0  0  0  0  0  0  0  0  0  0
   -7.9945  -10.3874  -10.2524 H   0  0  0  0  0  0  0  0  0  0  0  0
   -6.2261  -10.7103   -7.8972 N   0  0  0  0  0  2  0  0  0  0  0  0
   -4.9630  -11.0251   -7.5657 C   0  0  0  0  0  3  0  0  0  0  0  0
   -4.0202  -10.0199   -7.2916 C   0  0  1  0  0  3  0  0  0  0  0  0
   -4.4418   -8.6857   -7.2841 C   0  0  2  0  0  3  0  0  0  0  0  0
   -3.6347   -7.6155   -7.0788 N   0  0  0  0  0  2  0  0  0  0  0  0
   -4.6814   -6.3479   -7.2647 S   0  0  0  0  0  0  0  0  0  0  0  0
   -6.1272   -7.0711   -7.6174 N   0  0  0  0  0  2  0  0  0  0  0  0
   -5.8011   -8.3882   -7.5872 C   0  0  2  0  0  3  0  0  0  0  0  0
   -6.6709   -9.4348   -7.9269 C   0  0  2  0  0  3  0  0  0  0  0  0
   -4.6665  -12.0678   -7.6042 H   0  0  0  0  0  0  0  0  0  0  0  0
  -10.9572   -9.1672  -11.7518 C   0  0  0  0  0  0  0  0  0  0  0  0
  -12.2348   -9.1083  -12.5967 C   0  0  0  0  0  0  0  0  0  0  0  0
  -12.2550   -8.0835  -13.7352 C   0  0  0  0  0  0  0  0  0  0  0  0
  -12.0519   -6.6159  -13.3149 C   0  0  0  0  0  0  0  0  0  0  0  0
  -12.8252   -6.2165  -12.0385 C   0  0  0  0  0  0  0  0  0  0  0  0
  -12.8328   -4.7023  -11.8200 C   0  0  0  0  0  0  0  0  0  0  0  0
  -13.9387   -4.0560  -12.6617 C   0  0  0  0  0  0  0  0  0  0  0  0
  -13.9525   -2.5388  -12.5015 C   0  0  0  0  0  0  0  0  0  0  0  0
  -15.2127   -1.9552  -13.1431 C   0  0  0  0  0  0  0  0  0  0  0  0
  -15.2397   -0.4249  -13.3179 C   0  0  0  0  0  0  0  0  0  0  0  0
  -15.0693    0.4502  -12.0606 C   0  0  0  0  0  0  0  0  0  0  0  0
  -13.5979    0.6296  -11.6203 C   0  0  0  0  0  0  0  0  0  0  0  0
  -13.3874    1.5599  -10.4096 C   0  0  0  0  0  0  0  0  0  0  0  0
  -13.3776    3.0837  -10.6786 C   0  0  0  0  0  0  0  0  0  0  0  0
  -14.6766    3.7498  -11.1548 C   0  0  0  0  0  0  0  0  0  0  0  0
  -15.8481    3.5151  -10.2029 C   0  0  0  0  0  0  0  0  0  0  0  0
  -10.7341   -8.1398  -11.4028 H   0  0  0  0  0  0  0  0  0  0  0  0
  -10.0921   -9.4736  -12.3804 H   0  0  0  0  0  0  0  0  0  0  0  0
  -12.4175  -10.0851  -13.0431 H   0  0  0  0  0  0  0  0  0  0  0  0
  -13.0933   -8.8587  -11.9558 H   0  0  0  0  0  0  0  0  0  0  0  0
  -11.5155   -8.3441  -14.5229 H   0  0  0  0  0  0  0  0  0  0  0  0
  -13.2685   -8.1638  -14.1893 H   0  0  0  0  0  0  0  0  0  0  0  0
  -10.9733   -6.4195  -13.1302 H   0  0  0  0  0  0  0  0  0  0  0  0
  -12.3575   -5.9982  -14.1855 H   0  0  0  0  0  0  0  0  0  0  0  0
  -13.8720   -6.5901  -12.0468 H   0  0  0  0  0  0  0  0  0  0  0  0
  -12.3169   -6.6796  -11.1701 H   0  0  0  0  0  0  0  0  0  0  0  0
  -11.8260   -4.2757  -12.0280 H   0  0  0  0  0  0  0  0  0  0  0  0
  -13.0789   -4.4989  -10.7544 H   0  0  0  0  0  0  0  0  0  0  0  0
  -13.8222   -4.2981  -13.7390 H   0  0  0  0  0  0  0  0  0  0  0  0
  -14.9101   -4.4713  -12.3093 H   0  0  0  0  0  0  0  0  0  0  0  0
  -13.9733   -2.3023  -11.4181 H   0  0  0  0  0  0  0  0  0  0  0  0
  -13.0355   -2.1289  -12.9784 H   0  0  0  0  0  0  0  0  0  0  0  0
  -15.3309   -2.3806  -14.1644 H   0  0  0  0  0  0  0  0  0  0  0  0
  -16.0890   -2.2787  -12.5380 H   0  0  0  0  0  0  0  0  0  0  0  0
  -14.5003   -0.1090  -14.0830 H   0  0  0  0  0  0  0  0  0  0  0  0
  -16.2510   -0.2115  -13.7317 H   0  0  0  0  0  0  0  0  0  0  0  0
  -15.7061    0.0708  -11.2324 H   0  0  0  0  0  0  0  0  0  0  0  0
  -15.4585    1.4327  -12.3521 H   0  0  0  0  0  0  0  0  0  0  0  0
  -13.2088   -0.3472  -11.3021 H   0  0  0  0  0  0  0  0  0  0  0  0
  -12.9648    0.9770  -12.4652 H   0  0  0  0  0  0  0  0  0  0  0  0
  -12.3608    1.3449  -10.0364 H   0  0  0  0  0  0  0  0  0  0  0  0
  -14.0850    1.2877   -9.5894 H   0  0  0  0  0  0  0  0  0  0  0  0
  -13.0887    3.5738   -9.7228 H   0  0  0  0  0  0  0  0  0  0  0  0
  -12.5806    3.3105  -11.4201 H   0  0  0  0  0  0  0  0  0  0  0  0
  -14.4933    4.8440  -11.2200 H   0  0  0  0  0  0  0  0  0  0  0  0
  -14.9328    3.4293  -12.1798 H   0  0  0  0  0  0  0  0  0  0  0  0
  -15.6004    3.8943   -9.1890 H   0  0  0  0  0  0  0  0  0  0  0  0
  -16.7424    4.0551  -10.5784 H   0  0  0  0  0  0  0  0  0  0  0  0
  -16.0979    2.4367  -10.1371 H   0  0  0  0  0  0  0  0  0  0  0  0
  -11.0563  -11.6154  -10.8284 C   0  0  0  0  0  0  0  0  0  0  0  0
  -12.4561  -12.2135  -11.0334 C   0  0  0  0  0  0  0  0  0  0  0  0
  -12.5542  -13.6550  -11.5757 C   0  0  0  0  0  0  0  0  0  0  0  0
  -12.3893  -13.8550  -13.1046 C   0  0  0  0  0  0  0  0  0  0  0  0
  -13.2259  -12.8445  -13.9198 C   0  0  0  0  0  0  0  0  0  0  0  0
  -13.5652  -13.2588  -15.3565 C   0  0  0  0  0  0  0  0  0  0  0  0
  -14.7484  -14.2403  -15.3795 C   0  0  0  0  0  0  0  0  0  0  0  0
  -15.1868  -14.5681  -16.8114 C   0  0  0  0  0  0  0  0  0  0  0  0
  -16.4738  -15.4027  -16.7972 C   0  0  0  0  0  0  0  0  0  0  0  0
  -16.8985  -16.0420  -18.1357 C   0  0  0  0  0  0  0  0  0  0  0  0
  -17.2545  -15.1195  -19.3205 C   0  0  0  0  0  0  0  0  0  0  0  0
  -16.0335  -14.5483  -20.0714 C   0  0  0  0  0  0  0  0  0  0  0  0
  -16.3719  -13.7013  -21.3159 C   0  0  0  0  0  0  0  0  0  0  0  0
  -16.6830  -14.4577  -22.6307 C   0  0  0  0  0  0  0  0  0  0  0  0
  -17.9593  -15.3094  -22.7035 C   0  0  0  0  0  0  0  0  0  0  0  0
  -19.2250  -14.5103  -22.3987 C   0  0  0  0  0  0  0  0  0  0  0  0
  -10.4053  -11.7717  -11.7230 H   0  0  0  0  0  0  0  0  0  0  0  0
  -10.5972  -12.1951   -9.9997 H   0  0  0  0  0  0  0  0  0  0  0  0
  -12.9152  -12.2285  -10.0216 H   0  0  0  0  0  0  0  0  0  0  0  0
  -13.0902  -11.5725  -11.6579 H   0  0  0  0  0  0  0  0  0  0  0  0
  -11.8893  -14.3449  -11.0115 H   0  0  0  0  0  0  0  0  0  0  0  0
  -13.6002  -13.9685  -11.3649 H   0  0  0  0  0  0  0  0  0  0  0  0
  -11.3272  -13.7826  -13.4260 H   0  0  0  0  0  0  0  0  0  0  0  0
  -12.7313  -14.8917  -13.3101 H   0  0  0  0  0  0  0  0  0  0  0  0
  -14.1856  -12.6062  -13.4101 H   0  0  0  0  0  0  0  0  0  0  0  0
  -12.6185  -11.9292  -13.9773 H   0  0  0  0  0  0  0  0  0  0  0  0
  -12.6691  -13.6521  -15.8824 H   0  0  0  0  0  0  0  0  0  0  0  0
  -13.9055  -12.3419  -15.8893 H   0  0  0  0  0  0  0  0  0  0  0  0
  -14.4888  -15.1782  -14.8448 H   0  0  0  0  0  0  0  0  0  0  0  0
  -15.6063  -13.7600  -14.8559 H   0  0  0  0  0  0  0  0  0  0  0  0
  -15.3919  -13.6110  -17.3287 H   0  0  0  0  0  0  0  0  0  0  0  0
  -14.3672  -15.1198  -17.3187 H   0  0  0  0  0  0  0  0  0  0  0  0
  -16.3252  -16.2526  -16.0949 H   0  0  0  0  0  0  0  0  0  0  0  0
  -17.3044  -14.7777  -16.3993 H   0  0  0  0  0  0  0  0  0  0  0  0
  -16.1421  -16.7864  -18.4645 H   0  0  0  0  0  0  0  0  0  0  0  0
  -17.8261  -16.6066  -17.8905 H   0  0  0  0  0  0  0  0  0  0  0  0
  -17.9452  -14.3132  -18.9912 H   0  0  0  0  0  0  0  0  0  0  0  0
  -17.8089  -15.7625  -20.0152 H   0  0  0  0  0  0  0  0  0  0  0  0
  -15.5063  -13.8657  -19.3912 H   0  0  0  0  0  0  0  0  0  0  0  0
  -15.3227  -15.3533  -20.3573 H   0  0  0  0  0  0  0  0  0  0  0  0
  -15.4478  -13.1261  -21.5490 H   0  0  0  0  0  0  0  0  0  0  0  0
  -17.1564  -12.9534  -21.0734 H   0  0  0  0  0  0  0  0  0  0  0  0
  -16.7595  -13.6882  -23.4305 H   0  0  0  0  0  0  0  0  0  0  0  0
  -15.8171  -15.1086  -22.8819 H   0  0  0  0  0  0  0  0  0  0  0  0
  -18.0416  -15.7092  -23.7376 H   0  0  0  0  0  0  0  0  0  0  0  0
  -17.8857  -16.1932  -22.0461 H   0  0  0  0  0  0  0  0  0  0  0  0
  -19.3192  -13.6568  -23.1030 H   0  0  0  0  0  0  0  0  0  0  0  0
  -20.1127  -15.1670  -22.5138 H   0  0  0  0  0  0  0  0  0  0  0  0
  -19.2108  -14.1257  -21.3586 H   0  0  0  0  0  0  0  0  0  0  0  0
   -0.2722  -10.8339  -10.3926 C   0  0  0  0  0  0  0  0  0  0  0  0
   -1.0427  -10.5303   -9.1029 C   0  0  1  0  0  3  0  0  0  0  0  0
   -0.3536   -9.9624   -8.1585 C   0  0  1  0  0  3  0  0  0  0  0  0
   -1.2052   -9.5108   -6.6451 S   0  0  0  0  0  0  0  0  0  0  0  0
   -2.6238  -10.5190   -7.2538 C   0  0  2  0  0  3  0  0  0  0  0  0
   -2.3777  -10.7698   -8.7036 C   0  0  0  0  0  3  0  0  0  0  0  0
    0.9934   -9.9374   -8.5938 C   0  0  2  0  0  3  0  0  0  0  0  0
    1.1218  -10.5016   -9.8296 C   0  0  2  0  0  3  0  0  0  0  0  0
    2.4704  -10.6382  -10.2096 C   0  0  0  0  0  3  0  0  0  0  0  0
    3.3316  -10.1230   -9.2041 C   0  0  1  0  0  3  0  0  0  0  0  0
    2.4296   -9.5112   -7.9009 S   0  0  0  0  0  0  0  0  0  0  0  0
   -3.1191  -11.2211   -9.3360 H   0  0  0  0  0  0  0  0  0  0  0  0
    2.7988  -11.1026  -11.1297 H   0  0  0  0  0  0  0  0  0  0  0  0
    5.4511  -11.2540   -9.7197 N   0  0  0  0  0  2  0  0  0  0  0  0
    6.7923  -11.4688   -9.5668 C   0  0  0  0  0  3  0  0  0  0  0  0
    7.5777  -10.5909   -8.8073 C   0  0  0  0  0  3  0  0  0  0  0  0
    6.9621   -9.4924   -8.2222 C   0  0  1  0  0  3  0  0  0  0  0  0
    7.6215   -8.5676   -7.4801 N   0  0  0  0  0  2  0  0  0  0  0  0
    6.4083   -7.5312   -7.0516 S   0  0  0  0  0  0  0  0  0  0  0  0
    5.0648   -8.1931   -7.7488 N   0  0  0  0  0  2  0  0  0  0  0  0
    5.5655   -9.2936   -8.3706 C   0  0  2  0  0  3  0  0  0  0  0  0
    4.8069  -10.2048   -9.1327 C   0  0  1  0  0  3  0  0  0  0  0  0
    7.2516  -12.3346  -10.0231 H   0  0  0  0  0  0  0  0  0  0  0  0
   -0.6515   -9.7564  -11.4815 C   0  0  0  0  0  0  0  0  0  0  0  0
   -2.1423   -9.7251  -11.8813 C   0  0  0  0  0  0  0  0  0  0  0  0
   -2.5784   -8.6984  -12.9391 C   0  0  0  0  0  0  0  0  0  0  0  0
   -2.4716   -7.2075  -12.5763 C   0  0  0  0  0  0  0  0  0  0  0  0
   -3.1504   -6.8350  -11.2425 C   0  0  0  0  0  0  0  0  0  0  0  0
   -3.2768   -5.3084  -11.0637 C   0  0  0  0  0  0  0  0  0  0  0  0
   -4.4602   -4.7284  -11.8658 C   0  0  0  0  0  0  0  0  0  0  0  0
   -4.5374   -3.1988  -11.7407 C   0  0  0  0  0  0  0  0  0  0  0  0
   -5.8282   -2.6572  -12.3717 C   0  0  0  0  0  0  0  0  0  0  0  0
   -5.9062   -1.1283  -12.5928 C   0  0  0  0  0  0  0  0  0  0  0  0
   -5.7707   -0.1939  -11.3714 C   0  0  0  0  0  0  0  0  0  0  0  0
   -4.3116    0.0328  -10.9198 C   0  0  0  0  0  0  0  0  0  0  0  0
   -4.1318    1.0069   -9.7371 C   0  0  0  0  0  0  0  0  0  0  0  0
   -4.1434    2.5228  -10.0503 C   0  0  0  0  0  0  0  0  0  0  0  0
   -5.4534    3.1607  -10.5350 C   0  0  0  0  0  0  0  0  0  0  0  0
   -6.6112    2.9520   -9.5612 C   0  0  0  0  0  0  0  0  0  0  0  0
   -0.4124   -8.7457  -11.0812 H   0  0  0  0  0  0  0  0  0  0  0  0
   -0.0300   -9.9123  -12.3898 H   0  0  0  0  0  0  0  0  0  0  0  0
   -2.3686  -10.6852  -12.3389 H   0  0  0  0  0  0  0  0  0  0  0  0
   -2.7811   -9.5782  -10.9905 H   0  0  0  0  0  0  0  0  0  0  0  0
   -2.0236   -8.8784  -13.8850 H   0  0  0  0  0  0  0  0  0  0  0  0
   -3.6546   -8.9021  -13.1421 H   0  0  0  0  0  0  0  0  0  0  0  0
   -1.4063   -6.8947  -12.5346 H   0  0  0  0  0  0  0  0  0  0  0  0
   -2.9509   -6.6607  -13.4151 H   0  0  0  0  0  0  0  0  0  0  0  0
   -4.1602   -7.2911  -11.1475 H   0  0  0  0  0  0  0  0  0  0  0  0
   -2.5118   -7.2422  -10.4288 H   0  0  0  0  0  0  0  0  0  0  0  0
   -2.3154   -4.8179  -11.3326 H   0  0  0  0  0  0  0  0  0  0  0  0
   -3.4831   -5.0949   -9.9924 H   0  0  0  0  0  0  0  0  0  0  0  0
   -4.3799   -4.9827  -12.9430 H   0  0  0  0  0  0  0  0  0  0  0  0
   -5.3962   -5.1806  -11.4675 H   0  0  0  0  0  0  0  0  0  0  0  0
   -4.5390   -2.9363  -10.6640 H   0  0  0  0  0  0  0  0  0  0  0  0
   -3.6488   -2.7643  -12.2484 H   0  0  0  0  0  0  0  0  0  0  0  0
   -5.9490   -3.1104  -13.3805 H   0  0  0  0  0  0  0  0  0  0  0  0
   -6.6885   -2.9895  -11.7485 H   0  0  0  0  0  0  0  0  0  0  0  0
   -5.1768   -0.8129  -13.3700 H   0  0  0  0  0  0  0  0  0  0  0  0
   -6.9220   -0.9578  -13.0157 H   0  0  0  0  0  0  0  0  0  0  0  0
   -6.4102   -0.5534  -10.5365 H   0  0  0  0  0  0  0  0  0  0  0  0
   -6.1739    0.7720  -11.7047 H   0  0  0  0  0  0  0  0  0  0  0  0
   -3.9121   -0.9275  -10.5661 H   0  0  0  0  0  0  0  0  0  0  0  0
   -3.6757    0.3647  -11.7691 H   0  0  0  0  0  0  0  0  0  0  0  0
   -3.1046    0.8214   -9.3505 H   0  0  0  0  0  0  0  0  0  0  0  0
   -4.8305    0.7484   -8.9136 H   0  0  0  0  0  0  0  0  0  0  0  0
   -3.8559    3.0444   -9.1106 H   0  0  0  0  0  0  0  0  0  0  0  0
   -3.3524    2.7390  -10.8014 H   0  0  0  0  0  0  0  0  0  0  0  0
   -5.2792    4.2541  -10.6379 H   0  0  0  0  0  0  0  0  0  0  0  0
   -5.7215    2.8014  -11.5437 H   0  0  0  0  0  0  0  0  0  0  0  0
   -6.3526    3.3646   -8.5629 H   0  0  0  0  0  0  0  0  0  0  0  0
   -7.5122    3.4778   -9.9413 H   0  0  0  0  0  0  0  0  0  0  0  0
   -6.8543    1.8747   -9.4605 H   0  0  0  0  0  0  0  0  0  0  0  0
   -0.4230  -12.3406  -10.8960 C   0  0  0  0  0  0  0  0  0  0  0  0
   -1.8509  -12.9529  -10.7240 C   0  0  0  0  0  0  0  0  0  0  0  0
   -2.2236  -14.3274  -11.3161 C   0  0  0  0  0  0  0  0  0  0  0  0
   -2.5854  -14.3969  -12.8220 C   0  0  0  0  0  0  0  0  0  0  0  0
   -3.6396  -13.3490  -13.2614 C   0  0  0  0  0  0  0  0  0  0  0  0
   -4.2311  -13.5950  -14.6612 C   0  0  0  0  0  0  0  0  0  0  0  0
   -5.3745  -14.6246  -14.6405 C   0  0  0  0  0  0  0  0  0  0  0  0
   -5.9071  -14.9004  -16.0574 C   0  0  0  0  0  0  0  0  0  0  0  0
   -7.1653  -15.7790  -16.0127 C   0  0  0  0  0  0  0  0  0  0  0  0
   -7.6005  -16.4352  -17.3433 C   0  0  0  0  0  0  0  0  0  0  0  0
   -7.9805  -15.5374  -18.5402 C   0  0  0  0  0  0  0  0  0  0  0  0
   -6.7703  -14.9560  -19.3000 C   0  0  0  0  0  0  0  0  0  0  0  0
   -7.1184  -14.1370  -20.5615 C   0  0  0  0  0  0  0  0  0  0  0  0
   -7.4172  -14.9195  -21.8648 C   0  0  0  0  0  0  0  0  0  0  0  0
   -8.6906  -15.7759  -21.9332 C   0  0  0  0  0  0  0  0  0  0  0  0
   -9.9615  -14.9747  -21.6579 C   0  0  0  0  0  0  0  0  0  0  0  0
   -0.0907  -12.3908  -11.9542 H   0  0  0  0  0  0  0  0  0  0  0  0
    0.2493  -12.9992  -10.3052 H   0  0  0  0  0  0  0  0  0  0  0  0
   -1.9626  -13.0949   -9.6284 H   0  0  0  0  0  0  0  0  0  0  0  0
   -2.6396  -12.2785  -11.0645 H   0  0  0  0  0  0  0  0  0  0  0  0
   -1.4590  -15.0874  -11.0525 H   0  0  0  0  0  0  0  0  0  0  0  0
   -3.1649  -14.6211  -10.7951 H   0  0  0  0  0  0  0  0  0  0  0  0
   -1.6783  -14.2790  -13.4503 H   0  0  0  0  0  0  0  0  0  0  0  0
   -2.9936  -15.4164  -12.9913 H   0  0  0  0  0  0  0  0  0  0  0  0
   -4.4737  -13.2577  -12.5304 H   0  0  0  0  0  0  0  0  0  0  0  0
   -3.1115  -12.3863  -13.3103 H   0  0  0  0  0  0  0  0  0  0  0  0
   -3.4209  -13.8775  -15.3668 H   0  0  0  0  0  0  0  0  0  0  0  0
   -4.6820  -12.6417  -15.0198 H   0  0  0  0  0  0  0  0  0  0  0  0
   -5.0332  -15.5822  -14.1948 H   0  0  0  0  0  0  0  0  0  0  0  0
   -6.1958  -14.2141  -14.0095 H   0  0  0  0  0  0  0  0  0  0  0  0
   -6.1702  -13.9351  -16.5350 H   0  0  0  0  0  0  0  0  0  0  0  0
   -5.1028  -15.4089  -16.6311 H   0  0  0  0  0  0  0  0  0  0  0  0
   -6.9733  -16.6272  -15.3193 H   0  0  0  0  0  0  0  0  0  0  0  0
   -8.0037  -15.1818  -15.5890 H   0  0  0  0  0  0  0  0  0  0  0  0
   -6.8335  -17.1688  -17.6737 H   0  0  0  0  0  0  0  0  0  0  0  0
   -8.5135  -17.0166  -17.0836 H   0  0  0  0  0  0  0  0  0  0  0  0
   -8.6858  -14.7397  -18.2217 H   0  0  0  0  0  0  0  0  0  0  0  0
   -8.5227  -16.2010  -19.2265 H   0  0  0  0  0  0  0  0  0  0  0  0
   -6.2573  -14.2547  -18.6255 H   0  0  0  0  0  0  0  0  0  0  0  0
   -6.0458  -15.7539  -19.5727 H   0  0  0  0  0  0  0  0  0  0  0  0
   -6.2001  -13.5562  -20.8030 H   0  0  0  0  0  0  0  0  0  0  0  0
   -7.9120  -13.3941  -20.3347 H   0  0  0  0  0  0  0  0  0  0  0  0
   -7.4914  -14.1650  -22.6795 H   0  0  0  0  0  0  0  0  0  0  0  0
   -6.5468  -15.5707  -22.0995 H   0  0  0  0  0  0  0  0  0  0  0  0
   -8.7614  -16.1950  -22.9606 H   0  0  0  0  0  0  0  0  0  0  0  0
   -8.6229  -16.6461  -21.2577 H   0  0  0  0  0  0  0  0  0  0  0  0
  -10.0485  -14.1338  -22.3785 H   0  0  0  0  0  0  0  0  0  0  0  0
  -10.8467  -15.6352  -21.7732 H   0  0  0  0  0  0  0  0  0  0  0  0
   -9.9598  -14.5731  -20.6241 H   0  0  0  0  0  0  0  0  0  0  0  0
  -15.3148   -9.0851   -8.3223 H   0  0  0  0  0  0  0  0  0  0  0  0
    8.6388  -10.7627   -8.6791 H   0  0  0  0  0  0  0  0  0  0  0  0
  2  1  1  0  0  0  0
  2  6  1  6  0  0  0
  3  2  1  0  0  0  0
  3  4  1  1  0  0  0
  5  4  1  0  0  0  0
  6  5  1  0  0  0  0
  7  3  1  0  0  0  0
  7 11  1  1  0  0  0
  8  1  1  0  0  0  0
  8  7  1  0  0  0  0
  8  9  1  6  0  0  0
 10  9  1  1  0  0  0
 11 10  1  0  0  0  0
 12  6  1  0  0  0  0
 13  9  1  0  0  0  0
 15 14  1  0  0  0  0
 16 15  1  0  0  0  0
 17 16  1  1  0  0  0
 18 17  1  0  0  0  0
 19 18  1  0  0  0  0
 20 19  1  0  0  0  0
 21 17  1  0  0  0  0
 21 20  1  6  0  0  0
 22 10  1  0  0  0  0
 22 14  1  1  0  0  0
 22 21  1  0  0  0  0
 23 15  1  0  0  0  0
 24  1  1  0  0  0  0
 25 24  1  0  0  0  0
 26 25  1  0  0  0  0
 27 26  1  0  0  0  0
 28 27  1  0  0  0  0
 29 28  1  0  0  0  0
 30 29  1  0  0  0  0
 31 30  1  0  0  0  0
 32 31  1  0  0  0  0
 33 32  1  0  0  0  0
 34 33  1  0  0  0  0
 35 34  1  0  0  0  0
 36 35  1  0  0  0  0
 37 36  1  0  0  0  0
 38 37  1  0  0  0  0
 39 38  1  0  0  0  0
 40 24  1  0  0  0  0
 41 24  1  0  0  0  0
 42 25  1  0  0  0  0
 43 25  1  0  0  0  0
 44 26  1  0  0  0  0
 45 26  1  0  0  0  0
 46 27  1  0  0  0  0
 47 27  1  0  0  0  0
 48 28  1  0  0  0  0
 49 28  1  0  0  0  0
 50 29  1  0  0  0  0
 51 29  1  0  0  0  0
 52 30  1  0  0  0  0
 53 30  1  0  0  0  0
 54 31  1  0  0  0  0
 55 31  1  0  0  0  0
 56 32  1  0  0  0  0
 57 32  1  0  0  0  0
 58 33  1  0  0  0  0
 59 33  1  0  0  0  0
 60 34  1  0  0  0  0
 61 34  1  0  0  0  0
 62 35  1  0  0  0  0
 63 35  1  0  0  0  0
 64 36  1  0  0  0  0
 65 36  1  0  0  0  0
 66 37  1  0  0  0  0
 67 37  1  0  0  0  0
 68 38  1  0  0  0  0
 69 38  1  0  0  0  0
 70 39  1  0  0  0  0
 71 39  1  0  0  0  0
 72 39  1  0  0  0  0
 73  1  1  0  0  0  0
 74 73  1  0  0  0  0
 75 74  1  0  0  0  0
 76 75  1  0  0  0  0
 77 76  1  0  0  0  0
 78 77  1  0  0  0  0
 79 78  1  0  0  0  0
 80 79  1  0  0  0  0
 81 80  1  0  0  0  0
 82 81  1  0  0  0  0
 83 82  1  0  0  0  0
 84 83  1  0  0  0  0
 85 84  1  0  0  0  0
 86 85  1  0  0  0  0
 87 86  1  0  0  0  0
 88 87  1  0  0  0  0
 89 73  1  0  0  0  0
 90 73  1  0  0  0  0
 91 74  1  0  0  0  0
 92 74  1  0  0  0  0
 93 75  1  0  0  0  0
 94 75  1  0  0  0  0
 95 76  1  0  0  0  0
 96 76  1  0  0  0  0
 97 77  1  0  0  0  0
 98 77  1  0  0  0  0
 99 78  1  0  0  0  0
100 78  1  0  0  0  0
101 79  1  0  0  0  0
102 79  1  0  0  0  0
103 80  1  0  0  0  0
104 80  1  0  0  0  0
105 81  1  0  0  0  0
106 81  1  0  0  0  0
107 82  1  0  0  0  0
108 82  1  0  0  0  0
109 83  1  0  0  0  0
110 83  1  0  0  0  0
111 84  1  0  0  0  0
112 84  1  0  0  0  0
113 85  1  0  0  0  0
114 85  1  0  0  0  0
115 86  1  0  0  0  0
116 86  1  0  0  0  0
117 87  1  0  0  0  0
118 87  1  0  0  0  0
119 88  1  0  0  0  0
120 88  1  0  0  0  0
121 88  1  0  0  0  0
122  5  1  0  0  0  0
123 16  1  0  0  0  0
125124  1  0  0  0  0
125129  1  6  0  0  0
126125  1  0  0  0  0
126127  1  1  0  0  0
128127  1  0  0  0  0
129128  1  0  0  0  0
130126  1  0  0  0  0
130134  1  1  0  0  0
131124  1  0  0  0  0
131130  1  0  0  0  0
131132  1  1  0  0  0
133132  1  1  0  0  0
134133  1  0  0  0  0
135129  1  0  0  0  0
136132  1  0  0  0  0
138137  1  0  0  0  0
139138  1  1  0  0  0
140139  1  0  0  0  0
140141  1  1  0  0  0
142141  1  0  0  0  0
143142  1  0  0  0  0
144140  1  0  0  0  0
144143  1  1  0  0  0
145133  1  0  0  0  0
145137  1  1  0  0  0
145144  1  0  0  0  0
146138  1  0  0  0  0
147124  1  0  0  0  0
148147  1  0  0  0  0
149148  1  0  0  0  0
150149  1  0  0  0  0
151150  1  0  0  0  0
152151  1  0  0  0  0
153152  1  0  0  0  0
154153  1  0  0  0  0
155154  1  0  0  0  0
156155  1  0  0  0  0
157156  1  0  0  0  0
158157  1  0  0  0  0
159158  1  0  0  0  0
160159  1  0  0  0  0
161160  1  0  0  0  0
162161  1  0  0  0  0
163147  1  0  0  0  0
164147  1  0  0  0  0
165148  1  0  0  0  0
166148  1  0  0  0  0
167149  1  0  0  0  0
168149  1  0  0  0  0
169150  1  0  0  0  0
170150  1  0  0  0  0
171151  1  0  0  0  0
172151  1  0  0  0  0
173152  1  0  0  0  0
174152  1  0  0  0  0
175153  1  0  0  0  0
176153  1  0  0  0  0
177154  1  0  0  0  0
178154  1  0  0  0  0
179155  1  0  0  0  0
180155  1  0  0  0  0
181156  1  0  0  0  0
182156  1  0  0  0  0
183157  1  0  0  0  0
184157  1  0  0  0  0
185158  1  0  0  0  0
186158  1  0  0  0  0
187159  1  0  0  0  0
188159  1  0  0  0  0
189160  1  0  0  0  0
190160  1  0  0  0  0
191161  1  0  0  0  0
192161  1  0  0  0  0
193162  1  0  0  0  0
194162  1  0  0  0  0
195162  1  0  0  0  0
196124  1  0  0  0  0
197196  1  0  0  0  0
198197  1  0  0  0  0
199198  1  0  0  0  0
200199  1  0  0  0  0
201200  1  0  0  0  0
202201  1  0  0  0  0
203202  1  0  0  0  0
204203  1  0  0  0  0
205204  1  0  0  0  0
206205  1  0  0  0  0
207206  1  0  0  0  0
208207  1  0  0  0  0
209208  1  0  0  0  0
210209  1  0  0  0  0
211210  1  0  0  0  0
212196  1  0  0  0  0
213196  1  0  0  0  0
214197  1  0  0  0  0
215197  1  0  0  0  0
216198  1  0  0  0  0
217198  1  0  0  0  0
218199  1  0  0  0  0
219199  1  0  0  0  0
220200  1  0  0  0  0
221200  1  0  0  0  0
222201  1  0  0  0  0
223201  1  0  0  0  0
224202  1  0  0  0  0
225202  1  0  0  0  0
226203  1  0  0  0  0
227203  1  0  0  0  0
228204  1  0  0  0  0
229204  1  0  0  0  0
230205  1  0  0  0  0
231205  1  0  0  0  0
232206  1  0  0  0  0
233206  1  0  0  0  0
234207  1  0  0  0  0
235207  1  0  0  0  0
236208  1  0  0  0  0
237208  1  0  0  0  0
238209  1  0  0  0  0
239209  1  0  0  0  0
240210  1  0  0  0  0
241210  1  0  0  0  0
242211  1  0  0  0  0
243211  1  0  0  0  0
244211  1  0  0  0  0
246245  1  0  0  0  0
246250  1  6  0  0  0
247246  1  0  0  0  0
247248  1  1  0  0  0
249139  1  0  0  0  0
249248  1  6  0  0  0
250249  1  0  0  0  0
251247  1  0  0  0  0
251255  1  1  0  0  0
252245  1  0  0  0  0
252251  1  0  0  0  0
252253  1  6  0  0  0
254253  1  1  0  0  0
255254  1  0  0  0  0
256250  1  0  0  0  0
257253  1  0  0  0  0
259258  1  0  0  0  0
260259  1  0  0  0  0
261260  1  6  0  0  0
262261  1  0  0  0  0
263262  1  0  0  0  0
264263  1  0  0  0  0
265261  1  0  0  0  0
265264  1  1  0  0  0
266254  1  0  0  0  0
266258  1  6  0  0  0
266265  1  0  0  0  0
267259  1  0  0  0  0
268245  1  0  0  0  0
269268  1  0  0  0  0
270269  1  0  0  0  0
271270  1  0  0  0  0
272271  1  0  0  0  0
273272  1  0  0  0  0
274273  1  0  0  0  0
275274  1  0  0  0  0
276275  1  0  0  0  0
277276  1  0  0  0  0
278277  1  0  0  0  0
279278  1  0  0  0  0
280279  1  0  0  0  0
281280  1  0  0  0  0
282281  1  0  0  0  0
283282  1  0  0  0  0
284268  1  0  0  0  0
285268  1  0  0  0  0
286269  1  0  0  0  0
287269  1  0  0  0  0
288270  1  0  0  0  0
289270  1  0  0  0  0
290271  1  0  0  0  0
291271  1  0  0  0  0
292272  1  0  0  0  0
293272  1  0  0  0  0
294273  1  0  0  0  0
295273  1  0  0  0  0
296274  1  0  0  0  0
297274  1  0  0  0  0
298275  1  0  0  0  0
299275  1  0  0  0  0
300276  1  0  0  0  0
301276  1  0  0  0  0
302277  1  0  0  0  0
303277  1  0  0  0  0
304278  1  0  0  0  0
305278  1  0  0  0  0
306279  1  0  0  0  0
307279  1  0  0  0  0
308280  1  0  0  0  0
309280  1  0  0  0  0
310281  1  0  0  0  0
311281  1  0  0  0  0
312282  1  0  0  0  0
313282  1  0  0  0  0
314283  1  0  0  0  0
315283  1  0  0  0  0
316283  1  0  0  0  0
317245  1  0  0  0  0
318317  1  0  0  0  0
319318  1  0  0  0  0
320319  1  0  0  0  0
321320  1  0  0  0  0
322321  1  0  0  0  0
323322  1  0  0  0  0
324323  1  0  0  0  0
325324  1  0  0  0  0
326325  1  0  0  0  0
327326  1  0  0  0  0
328327  1  0  0  0  0
329328  1  0  0  0  0
330329  1  0  0  0  0
331330  1  0  0  0  0
332331  1  0  0  0  0
333317  1  0  0  0  0
334317  1  0  0  0  0
335318  1  0  0  0  0
336318  1  0  0  0  0
337319  1  0  0  0  0
338319  1  0  0  0  0
339320  1  0  0  0  0
340320  1  0  0  0  0
341321  1  0  0  0  0
342321  1  0  0  0  0
343322  1  0  0  0  0
344322  1  0  0  0  0
345323  1  0  0  0  0
346323  1  0  0  0  0
347324  1  0  0  0  0
348324  1  0  0  0  0
349325  1  0  0  0  0
350325  1  0  0  0  0
351326  1  0  0  0  0
352326  1  0  0  0  0
353327  1  0  0  0  0
354327  1  0  0  0  0
355328  1  0  0  0  0
356328  1  0  0  0  0
357329  1  0  0  0  0
358329  1  0  0  0  0
359330  1  0  0  0  0
360330  1  0  0  0  0
361331  1  0  0  0  0
362331  1  0  0  0  0
363332  1  0  0  0  0
364332  1  0  0  0  0
365332  1  0  0  0  0
366128  1  0  0  0  0
367260  1  0  0  0  0
M  END
$$$$
