Compound
 OpenBabel07102311053D

370383  0  0  1  0  0  0  0  0999 V2000
    9.8392    9.9022    9.3735 C   0  0  2  0  0  3  0  0  0  0  0  0
    8.7211   10.6938   10.1574 C   0  0  2  0  0  3  0  0  0  0  0  0
    9.3136   11.5045   11.0696 C   0  0  1  0  0  3  0  0  0  0  0  0
    8.2310   12.5022   11.8962 S   0  0  0  0  0  0  0  0  0  0  0  0
    6.8707   11.8716   11.0958 C   0  0  1  0  0  3  0  0  0  0  0  0
    7.3176   10.8793   10.2254 C   0  0  0  0  0  3  0  0  0  0  0  0
   10.7302   11.3059   11.0600 C   0  0  2  0  0  3  0  0  0  0  0  0
   11.0613   10.4251   10.1332 C   0  0  1  0  0  3  0  0  0  0  0  0
   12.4886   10.2306   10.0975 C   0  0  0  0  0  3  0  0  0  0  0  0
   13.1255   10.9867   11.0673 C   0  0  0  0  0  3  0  0  0  0  0  0
   12.0284   12.0216   12.0500 S   0  0  0  0  0  0  0  0  0  0  0  0
    6.5900   10.3994    9.6648 H   0  0  0  0  0  0  0  0  0  0  0  0
   13.0025    9.6167    9.4163 H   0  0  0  0  0  0  0  0  0  0  0  0
    3.1000   12.0064   10.5221 N   0  0  0  0  0  2  0  0  0  0  0  0
    4.3966   11.5766   10.5312 C   0  0  0  0  0  3  0  0  0  0  0  0
    5.4282   12.3221   11.1637 C   0  0  2  0  0  3  0  0  0  0  0  0
    5.0360   13.5261   11.7786 C   0  0  2  0  0  3  0  0  0  0  0  0
    5.8813   14.3797   12.4056 N   0  0  0  0  0  2  0  0  0  0  0  0
    4.8707   15.6031   12.8787 S   0  0  0  0  0  0  0  0  0  0  0  0
    3.3878   15.1298   12.3314 N   0  0  0  0  0  2  0  0  0  0  0  0
    3.6690   13.9434   11.7348 C   0  0  1  0  0  3  0  0  0  0  0  0
    2.7171   13.1642   11.0974 C   0  0  0  0  0  3  0  0  0  0  0  0
    4.5811   10.6493   10.0378 H   0  0  0  0  0  0  0  0  0  0  0  0
    2.7965   17.0269    6.1809 C   0  0  0  0  0  0  0  0  0  0  0  0
    3.6948   16.6564    7.3612 C   0  0  0  0  0  0  0  0  0  0  0  0
    3.9028   15.1378    7.5144 C   0  0  0  0  0  0  0  0  0  0  0  0
    4.6845   14.5021    6.3471 C   0  0  0  0  0  0  0  0  0  0  0  0
    4.8984   12.9935    6.5751 C   0  0  0  0  0  0  0  0  0  0  0  0
    5.7939   12.3687    5.4756 C   0  0  0  0  0  0  0  0  0  0  0  0
    6.1118   10.8507    5.6488 C   0  0  0  0  0  0  0  0  0  0  0  0
    6.6329   10.5747    7.0577 C   0  0  0  0  0  0  0  0  0  0  0  0
    7.3558    9.2325    7.3866 C   0  0  2  0  0  0  0  0  0  0  0  0
    6.5362    7.9027    7.5828 C   0  0  0  0  0  0  0  0  0  0  0  0
    5.8349    7.9906    8.9671 C   0  0  0  0  0  0  0  0  0  0  0  0
    4.9339    6.9140    9.5822 C   0  0  0  0  0  0  0  0  0  0  0  0
    4.5945    7.4384   11.0133 C   0  0  0  0  0  0  0  0  0  0  0  0
    3.4757    6.7312   11.7768 C   0  0  0  0  0  0  0  0  0  0  0  0
    3.8029    5.3010   12.1708 C   0  0  0  0  0  0  0  0  0  0  0  0
    8.8194    9.1670    6.9444 C   0  0  0  0  0  0  0  0  0  0  0  0
    9.8303    8.8257    8.1319 C   0  0  2  0  0  3  0  0  0  0  0  0
   11.1975    8.3860    7.4711 C   0  0  0  0  0  0  0  0  0  0  0  0
   11.6368    6.9082    7.7546 C   0  0  2  0  0  0  0  0  0  0  0  0
   12.4731    6.7420    9.0554 C   0  0  0  0  0  0  0  0  0  0  0  0
   13.9543    7.1624    8.9391 C   0  0  0  0  0  0  0  0  0  0  0  0
   14.6636    7.2640   10.2993 C   0  0  0  0  0  0  0  0  0  0  0  0
   14.9408    5.9159   10.9880 C   0  0  0  0  0  0  0  0  0  0  0  0
   15.8843    4.9779   10.2057 C   0  0  0  0  0  0  0  0  0  0  0  0
   17.2577    5.5963    9.9249 C   0  0  0  0  0  0  0  0  0  0  0  0
   12.2770    6.1888    6.5106 C   0  0  0  0  0  0  0  0  0  0  0  0
   13.3445    6.9846    5.7126 C   0  0  0  0  0  0  0  0  0  0  0  0
   14.0728    6.1630    4.6300 C   0  0  0  0  0  0  0  0  0  0  0  0
   13.1617    5.6039    3.5211 C   0  0  0  0  0  0  0  0  0  0  0  0
   13.9440    4.8524    2.4191 C   0  0  0  0  0  0  0  0  0  0  0  0
   14.8555    5.7754    1.5831 C   0  0  0  0  0  0  0  0  0  0  0  0
   15.6521    5.0384    0.4914 C   0  0  0  0  0  0  0  0  0  0  0  0
   14.7767    4.4055   -0.5906 C   0  0  0  0  0  0  0  0  0  0  0  0
    3.2546   16.7270    5.2172 H   0  0  0  0  0  0  0  0  0  0  0  0
    2.6480   18.1276    6.1608 H   0  0  0  0  0  0  0  0  0  0  0  0
    1.8042   16.5393    6.2873 H   0  0  0  0  0  0  0  0  0  0  0  0
    4.6766   17.1681    7.2581 H   0  0  0  0  0  0  0  0  0  0  0  0
    3.2075   17.0344    8.2869 H   0  0  0  0  0  0  0  0  0  0  0  0
    4.4814   14.9762    8.4517 H   0  0  0  0  0  0  0  0  0  0  0  0
    2.9150   14.6421    7.6305 H   0  0  0  0  0  0  0  0  0  0  0  0
    5.6736   15.0075    6.2773 H   0  0  0  0  0  0  0  0  0  0  0  0
    4.1418   14.6425    5.3901 H   0  0  0  0  0  0  0  0  0  0  0  0
    5.3979   12.8866    7.5620 H   0  0  0  0  0  0  0  0  0  0  0  0
    3.9169   12.4749    6.6101 H   0  0  0  0  0  0  0  0  0  0  0  0
    5.3327   12.5255    4.4771 H   0  0  0  0  0  0  0  0  0  0  0  0
    6.7606   12.9202    5.4916 H   0  0  0  0  0  0  0  0  0  0  0  0
    5.2107   10.2267    5.4678 H   0  0  0  0  0  0  0  0  0  0  0  0
    6.8851   10.5893    4.8956 H   0  0  0  0  0  0  0  0  0  0  0  0
    5.7616   10.6995    7.7267 H   0  0  0  0  0  0  0  0  0  0  0  0
    7.3622   11.3822    7.3012 H   0  0  0  0  0  0  0  0  0  0  0  0
    7.6241    9.4140    8.3673 H   0  0  0  0  0  0  0  0  0  0  0  0
    5.8294    7.7485    6.7406 H   0  0  0  0  0  0  0  0  0  0  0  0
    7.2330    7.0374    7.6303 H   0  0  0  0  0  0  0  0  0  0  0  0
    6.6574    8.1126    9.7103 H   0  0  0  0  0  0  0  0  0  0  0  0
    5.1992    8.8883    8.9155 H   0  0  0  0  0  0  0  0  0  0  0  0
    5.4482    5.9309    9.6462 H   0  0  0  0  0  0  0  0  0  0  0  0
    4.0160    6.8181    8.9653 H   0  0  0  0  0  0  0  0  0  0  0  0
    5.5197    7.4456   11.6358 H   0  0  0  0  0  0  0  0  0  0  0  0
    4.2488    8.4904   10.9297 H   0  0  0  0  0  0  0  0  0  0  0  0
    2.5415    6.7678   11.1810 H   0  0  0  0  0  0  0  0  0  0  0  0
    3.3075    7.3048   12.7188 H   0  0  0  0  0  0  0  0  0  0  0  0
    4.7162    5.2740   12.8020 H   0  0  0  0  0  0  0  0  0  0  0  0
    3.9473    4.6745   11.2682 H   0  0  0  0  0  0  0  0  0  0  0  0
    2.9544    4.8961   12.7619 H   0  0  0  0  0  0  0  0  0  0  0  0
    9.1539   10.1532    6.5525 H   0  0  0  0  0  0  0  0  0  0  0  0
    8.8617    8.4484    6.0976 H   0  0  0  0  0  0  0  0  0  0  0  0
   11.0063    8.3774    6.3807 H   0  0  0  0  0  0  0  0  0  0  0  0
   12.0040    9.1380    7.5284 H   0  0  0  0  0  0  0  0  0  0  0  0
   10.6973    6.3385    7.9403 H   0  0  0  0  0  0  0  0  0  0  0  0
   11.9606    7.3187    9.8550 H   0  0  0  0  0  0  0  0  0  0  0  0
   12.4632    5.6723    9.3584 H   0  0  0  0  0  0  0  0  0  0  0  0
   14.5107    6.4684    8.2815 H   0  0  0  0  0  0  0  0  0  0  0  0
   14.0226    8.1500    8.4591 H   0  0  0  0  0  0  0  0  0  0  0  0
   15.6285    7.7915   10.1572 H   0  0  0  0  0  0  0  0  0  0  0  0
   14.0571    7.9043   10.9753 H   0  0  0  0  0  0  0  0  0  0  0  0
   13.9825    5.3891   11.1807 H   0  0  0  0  0  0  0  0  0  0  0  0
   15.4085    6.1299   11.9737 H   0  0  0  0  0  0  0  0  0  0  0  0
   15.4220    4.6660    9.2467 H   0  0  0  0  0  0  0  0  0  0  0  0
   16.0361    4.0616   10.8152 H   0  0  0  0  0  0  0  0  0  0  0  0
   17.7449    5.9080   10.8732 H   0  0  0  0  0  0  0  0  0  0  0  0
   17.9057    4.8502    9.4196 H   0  0  0  0  0  0  0  0  0  0  0  0
   17.1737    6.4725    9.2493 H   0  0  0  0  0  0  0  0  0  0  0  0
   11.4582    5.9766    5.7889 H   0  0  0  0  0  0  0  0  0  0  0  0
   12.6820    5.2076    6.8422 H   0  0  0  0  0  0  0  0  0  0  0  0
   14.1390    7.3658    6.3676 H   0  0  0  0  0  0  0  0  0  0  0  0
   12.8748    7.8693    5.2346 H   0  0  0  0  0  0  0  0  0  0  0  0
   14.8185    6.8487    4.1809 H   0  0  0  0  0  0  0  0  0  0  0  0
   14.6207    5.3233    5.1113 H   0  0  0  0  0  0  0  0  0  0  0  0
   12.5740    6.4238    3.0551 H   0  0  0  0  0  0  0  0  0  0  0  0
   12.4533    4.8820    3.9806 H   0  0  0  0  0  0  0  0  0  0  0  0
   14.5458    4.0386    2.8799 H   0  0  0  0  0  0  0  0  0  0  0  0
   13.1946    4.3899    1.7436 H   0  0  0  0  0  0  0  0  0  0  0  0
   15.6065    6.2534    2.2433 H   0  0  0  0  0  0  0  0  0  0  0  0
   14.2443    6.5764    1.1126 H   0  0  0  0  0  0  0  0  0  0  0  0
   16.3178    5.7800   -0.0028 H   0  0  0  0  0  0  0  0  0  0  0  0
   16.2926    4.2572    0.9548 H   0  0  0  0  0  0  0  0  0  0  0  0
   14.1335    3.6062   -0.1707 H   0  0  0  0  0  0  0  0  0  0  0  0
   15.4268    3.9464   -1.3658 H   0  0  0  0  0  0  0  0  0  0  0  0
   14.1420    5.1774   -1.0750 H   0  0  0  0  0  0  0  0  0  0  0  0
   14.1967   10.9708   11.2107 H   0  0  0  0  0  0  0  0  0  0  0  0
    1.6795   13.4725   11.0479 H   0  0  0  0  0  0  0  0  0  0  0  0
   -9.0300   -9.5364  -10.7649 C   0  0  2  0  0  3  0  0  0  0  0  0
   -9.7792   -8.9851   -9.5706 C   0  0  1  0  0  3  0  0  0  0  0  0
   -9.4853   -9.6197   -8.4021 C   0  0  1  0  0  3  0  0  0  0  0  0
  -10.5882   -9.2085   -7.1945 S   0  0  0  0  0  0  0  0  0  0  0  0
  -11.3855   -8.0695   -8.1851 C   0  0  1  0  0  3  0  0  0  0  0  0
  -10.7638   -8.0270   -9.4439 C   0  0  0  0  0  3  0  0  0  0  0  0
   -8.3575  -10.5564   -8.5548 C   0  0  2  0  0  3  0  0  0  0  0  0
   -7.9245  -10.0242   -9.8875 C   0  0  2  0  0  3  0  0  0  0  0  0
   -6.6740   -9.6158  -10.0101 C   0  0  0  0  0  3  0  0  0  0  0  0
   -5.9460   -9.7914   -8.8599 C   0  0  0  0  0  3  0  0  0  0  0  0
   -6.9525  -10.2286   -7.4340 S   0  0  0  0  0  0  0  0  0  0  0  0
  -11.1314   -7.4932  -10.3042 H   0  0  0  0  0  0  0  0  0  0  0  0
   -6.3003   -9.0873  -10.8777 H   0  0  0  0  0  0  0  0  0  0  0  0
  -15.0791   -8.3177   -7.9708 N   0  0  0  0  0  2  0  0  0  0  0  0
  -13.7732   -8.4571   -7.5806 C   0  0  0  0  0  3  0  0  0  0  0  0
  -12.7877   -7.6110   -8.1253 C   0  0  2  0  0  3  0  0  0  0  0  0
  -13.2083   -6.5066   -8.8679 C   0  0  2  0  0  3  0  0  0  0  0  0
  -12.3719   -5.5645   -9.3786 N   0  0  0  0  0  2  0  0  0  0  0  0
  -13.4073   -4.5699  -10.1850 S   0  0  0  0  0  0  0  0  0  0  0  0
  -14.8773   -5.2907   -9.9658 N   0  0  0  0  0  2  0  0  0  0  0  0
  -14.5685   -6.3609   -9.1980 C   0  0  1  0  0  3  0  0  0  0  0  0
  -15.4812   -7.3397   -8.8287 C   0  0  1  0  0  3  0  0  0  0  0  0
  -13.4995   -9.3338   -7.0116 H   0  0  0  0  0  0  0  0  0  0  0  0
  -17.5291   -2.8164  -14.4792 C   0  0  0  0  0  0  0  0  0  0  0  0
  -16.6000   -2.8673  -13.2740 C   0  0  0  0  0  0  0  0  0  0  0  0
  -16.2850   -4.2956  -12.8084 C   0  0  0  0  0  0  0  0  0  0  0  0
  -15.4384   -5.1351  -13.7888 C   0  0  0  0  0  0  0  0  0  0  0  0
  -15.0902   -6.5088  -13.1711 C   0  0  0  0  0  0  0  0  0  0  0  0
  -14.1636   -7.3530  -14.0677 C   0  0  0  0  0  0  0  0  0  0  0  0
  -13.7571   -8.7284  -13.4613 C   0  0  0  0  0  0  0  0  0  0  0  0
  -13.0167   -8.5866  -12.1151 C   0  0  0  0  0  0  0  0  0  0  0  0
  -12.3325   -9.8697  -11.5323 C   0  0  1  0  0  0  0  0  0  0  0  0
  -13.2986  -11.0193  -11.1385 C   0  0  0  0  0  0  0  0  0  0  0  0
  -14.1694  -10.5984   -9.9203 C   0  0  0  0  0  0  0  0  0  0  0  0
  -15.1474  -11.6518   -9.3909 C   0  0  0  0  0  0  0  0  0  0  0  0
  -16.0224  -11.2010   -8.2111 C   0  0  0  0  0  0  0  0  0  0  0  0
  -17.0614  -12.2642   -7.8063 C   0  0  0  0  0  0  0  0  0  0  0  0
  -16.4437  -13.5136   -7.1768 C   0  0  0  0  0  0  0  0  0  0  0  0
  -11.0715  -10.2702  -12.3560 C   0  0  0  0  0  0  0  0  0  0  0  0
   -9.7765  -10.7299  -11.5549 C   0  0  1  0  0  3  0  0  0  0  0  0
   -8.8002  -11.4233  -12.5871 C   0  0  0  0  0  0  0  0  0  0  0  0
   -8.5037  -12.9421  -12.3423 C   0  0  1  0  0  0  0  0  0  0  0  0
   -7.6736  -13.2368  -11.0566 C   0  0  0  0  0  0  0  0  0  0  0  0
   -6.2017  -12.7814  -11.0900 C   0  0  0  0  0  0  0  0  0  0  0  0
   -5.5036  -12.8842   -9.7234 C   0  0  0  0  0  0  0  0  0  0  0  0
   -5.1795  -14.3023   -9.2312 C   0  0  0  0  0  0  0  0  0  0  0  0
   -4.1622  -15.0702  -10.0958 C   0  0  0  0  0  0  0  0  0  0  0  0
   -2.8077  -14.3630  -10.2103 C   0  0  0  0  0  0  0  0  0  0  0  0
   -7.9095  -13.6602  -13.6048 C   0  0  0  0  0  0  0  0  0  0  0  0
   -6.8191  -12.8818  -14.3821 C   0  0  0  0  0  0  0  0  0  0  0  0
   -6.0553  -13.7213  -15.4270 C   0  0  0  0  0  0  0  0  0  0  0  0
   -6.9275  -14.3236  -16.5447 C   0  0  0  0  0  0  0  0  0  0  0  0
   -6.1036  -15.0939  -17.6042 C   0  0  0  0  0  0  0  0  0  0  0  0
   -5.1789  -14.1792  -18.4365 C   0  0  0  0  0  0  0  0  0  0  0  0
   -4.3456  -14.9267  -19.4933 C   0  0  0  0  0  0  0  0  0  0  0  0
   -5.1841  -15.5823  -20.5902 C   0  0  0  0  0  0  0  0  0  0  0  0
  -17.0531   -3.2844  -15.3635 H   0  0  0  0  0  0  0  0  0  0  0  0
  -17.7540   -1.7551  -14.7185 H   0  0  0  0  0  0  0  0  0  0  0  0
  -18.4827   -3.3359  -14.2457 H   0  0  0  0  0  0  0  0  0  0  0  0
  -15.6564   -2.3228  -13.4965 H   0  0  0  0  0  0  0  0  0  0  0  0
  -17.1072   -2.3399  -12.4348 H   0  0  0  0  0  0  0  0  0  0  0  0
  -15.7055   -4.1659  -11.8844 H   0  0  0  0  0  0  0  0  0  0  0  0
  -17.2285   -4.8281  -12.5590 H   0  0  0  0  0  0  0  0  0  0  0  0
  -14.4964   -4.5831  -14.0034 H   0  0  0  0  0  0  0  0  0  0  0  0
  -15.9909   -5.2872  -14.7390 H   0  0  0  0  0  0  0  0  0  0  0  0
  -14.5629   -6.3209  -12.2226 H   0  0  0  0  0  0  0  0  0  0  0  0
  -16.0247   -7.0719  -12.9629 H   0  0  0  0  0  0  0  0  0  0  0  0
  -14.6708   -7.5306  -15.0406 H   0  0  0  0  0  0  0  0  0  0  0  0
  -13.2378   -6.7685  -14.2672 H   0  0  0  0  0  0  0  0  0  0  0  0
  -14.6552   -9.3688  -13.3293 H   0  0  0  0  0  0  0  0  0  0  0  0
  -13.0820   -9.2180  -14.1955 H   0  0  0  0  0  0  0  0  0  0  0  0
  -13.7193   -8.1777  -11.3667 H   0  0  0  0  0  0  0  0  0  0  0  0
  -12.2238   -7.8206  -12.2523 H   0  0  0  0  0  0  0  0  0  0  0  0
  -11.9472   -9.5949  -10.5864 H   0  0  0  0  0  0  0  0  0  0  0  0
  -13.9067  -11.3002  -12.0189 H   0  0  0  0  0  0  0  0  0  0  0  0
  -12.6996  -11.8996  -10.8228 H   0  0  0  0  0  0  0  0  0  0  0  0
  -13.4680  -10.3796   -9.0999 H   0  0  0  0  0  0  0  0  0  0  0  0
  -14.7441   -9.7016  -10.1853 H   0  0  0  0  0  0  0  0  0  0  0  0
  -14.5555  -12.5224   -9.0572 H   0  0  0  0  0  0  0  0  0  0  0  0
  -15.8510  -11.8871  -10.1985 H   0  0  0  0  0  0  0  0  0  0  0  0
  -15.3981  -10.9344   -7.3333 H   0  0  0  0  0  0  0  0  0  0  0  0
  -16.5982  -10.3110   -8.5237 H   0  0  0  0  0  0  0  0  0  0  0  0
  -17.6708  -12.5491   -8.6929 H   0  0  0  0  0  0  0  0  0  0  0  0
  -17.7464  -11.8168   -7.0540 H   0  0  0  0  0  0  0  0  0  0  0  0
  -15.8834  -13.2393   -6.2591 H   0  0  0  0  0  0  0  0  0  0  0  0
  -15.7578  -14.0344   -7.8701 H   0  0  0  0  0  0  0  0  0  0  0  0
  -17.2527  -14.2232   -6.9018 H   0  0  0  0  0  0  0  0  0  0  0  0
  -10.7201   -9.4018  -12.9548 H   0  0  0  0  0  0  0  0  0  0  0  0
  -11.4105  -11.0355  -13.0896 H   0  0  0  0  0  0  0  0  0  0  0  0
   -9.2634  -11.3759  -13.5969 H   0  0  0  0  0  0  0  0  0  0  0  0
   -7.8606  -10.8449  -12.6963 H   0  0  0  0  0  0  0  0  0  0  0  0
   -9.4843  -13.4388  -12.1615 H   0  0  0  0  0  0  0  0  0  0  0  0
   -8.1978  -12.7520  -10.2093 H   0  0  0  0  0  0  0  0  0  0  0  0
   -7.6868  -14.3307  -10.8602 H   0  0  0  0  0  0  0  0  0  0  0  0
   -5.6147  -13.3523  -11.8319 H   0  0  0  0  0  0  0  0  0  0  0  0
   -6.1833  -11.7194  -11.3873 H   0  0  0  0  0  0  0  0  0  0  0  0
   -4.5623  -12.2983   -9.7610 H   0  0  0  0  0  0  0  0  0  0  0  0
   -6.1504  -12.4093   -8.9663 H   0  0  0  0  0  0  0  0  0  0  0  0
   -6.1159  -14.8925   -9.1510 H   0  0  0  0  0  0  0  0  0  0  0  0
   -4.7541  -14.2099   -8.2072 H   0  0  0  0  0  0  0  0  0  0  0  0
   -4.5699  -15.2519  -11.1112 H   0  0  0  0  0  0  0  0  0  0  0  0
   -3.9928  -16.0581   -9.6160 H   0  0  0  0  0  0  0  0  0  0  0  0
   -2.3810  -14.1719   -9.2023 H   0  0  0  0  0  0  0  0  0  0  0  0
   -2.1016  -15.0038  -10.7785 H   0  0  0  0  0  0  0  0  0  0  0  0
   -2.9004  -13.4026  -10.7579 H   0  0  0  0  0  0  0  0  0  0  0  0
   -8.7340  -13.8322  -14.3306 H   0  0  0  0  0  0  0  0  0  0  0  0
   -7.5386  -14.6619  -13.2934 H   0  0  0  0  0  0  0  0  0  0  0  0
   -6.0501  -12.4837  -13.7040 H   0  0  0  0  0  0  0  0  0  0  0  0
   -7.2842  -12.0044  -14.8802 H   0  0  0  0  0  0  0  0  0  0  0  0
   -5.3048  -13.0387  -15.8720 H   0  0  0  0  0  0  0  0  0  0  0  0
   -5.5120  -14.5426  -14.9097 H   0  0  0  0  0  0  0  0  0  0  0  0
   -7.5125  -13.5252  -17.0494 H   0  0  0  0  0  0  0  0  0  0  0  0
   -7.6395  -15.0414  -16.0836 H   0  0  0  0  0  0  0  0  0  0  0  0
   -5.5045  -15.8881  -17.1064 H   0  0  0  0  0  0  0  0  0  0  0  0
   -6.8261  -15.5841  -18.2893 H   0  0  0  0  0  0  0  0  0  0  0  0
   -4.4509  -13.6812  -17.7661 H   0  0  0  0  0  0  0  0  0  0  0  0
   -5.7858  -13.3944  -18.9385 H   0  0  0  0  0  0  0  0  0  0  0  0
   -3.6733  -14.1871  -19.9817 H   0  0  0  0  0  0  0  0  0  0  0  0
   -3.7109  -15.6949  -19.0011 H   0  0  0  0  0  0  0  0  0  0  0  0
   -5.8329  -16.3803  -20.1769 H   0  0  0  0  0  0  0  0  0  0  0  0
   -4.5074  -16.0460  -21.3396 H   0  0  0  0  0  0  0  0  0  0  0  0
   -5.8096  -14.8218  -21.1038 H   0  0  0  0  0  0  0  0  0  0  0  0
  -19.6647   -9.6714  -11.0766 C   0  0  1  0  0  3  0  0  0  0  0  0
  -20.9381   -9.0595  -10.3671 C   0  0  2  0  0  3  0  0  0  0  0  0
  -20.5322   -8.2355   -9.3777 C   0  0  1  0  0  3  0  0  0  0  0  0
  -21.7525   -7.3626   -8.6286 S   0  0  0  0  0  0  0  0  0  0  0  0
  -22.9541   -8.0485   -9.5963 C   0  0  1  0  0  3  0  0  0  0  0  0
  -22.3494   -8.9851  -10.4387 C   0  0  0  0  0  3  0  0  0  0  0  0
  -19.1300   -8.1556   -9.3187 C   0  0  2  0  0  3  0  0  0  0  0  0
  -18.5817   -8.8732  -10.2849 C   0  0  2  0  0  3  0  0  0  0  0  0
  -17.1638   -8.5509  -10.3732 C   0  0  0  0  0  3  0  0  0  0  0  0
  -16.8331   -7.3420   -9.4781 C   0  0  2  0  0  3  0  0  0  0  0  0
  -18.1629   -7.0949   -8.2786 S   0  0  0  0  0  0  0  0  0  0  0  0
  -22.9639   -9.4580  -11.1101 H   0  0  0  0  0  0  0  0  0  0  0  0
  -16.5528   -8.8820  -11.1997 H   0  0  0  0  0  0  0  0  0  0  0  0
  -26.5954   -7.8878  -10.7061 N   0  0  0  0  0  2  0  0  0  0  0  0
  -25.3176   -8.3249  -10.5212 C   0  0  0  0  0  3  0  0  0  0  0  0
  -24.3908   -7.6111   -9.7162 C   0  0  2  0  0  3  0  0  0  0  0  0
  -24.8626   -6.4211   -9.1230 C   0  0  1  0  0  3  0  0  0  0  0  0
  -24.1188   -5.5925   -8.3570 N   0  0  0  0  0  2  0  0  0  0  0  0
  -25.1756   -4.3720   -8.0054 S   0  0  0  0  0  0  0  0  0  0  0  0
  -26.5647   -4.8153   -8.7788 N   0  0  0  0  0  2  0  0  0  0  0  0
  -26.2086   -5.9901   -9.3561 C   0  0  2  0  0  3  0  0  0  0  0  0
  -27.0581   -6.7402  -10.1515 C   0  0  0  0  0  3  0  0  0  0  0  0
  -25.0518   -9.2240  -11.0316 H   0  0  0  0  0  0  0  0  0  0  0  0
  -26.4179   -2.5091  -14.5705 C   0  0  0  0  0  0  0  0  0  0  0  0
  -25.5187   -2.8624  -13.3846 C   0  0  0  0  0  0  0  0  0  0  0  0
  -25.2907   -4.3790  -13.2183 C   0  0  0  0  0  0  0  0  0  0  0  0
  -24.4954   -5.0170  -14.3775 C   0  0  0  0  0  0  0  0  0  0  0  0
  -24.2714   -6.5293  -14.1554 C   0  0  0  0  0  0  0  0  0  0  0  0
  -23.3799   -7.1436  -15.2689 C   0  0  0  0  0  0  0  0  0  0  0  0
  -23.0716   -8.6718  -15.1460 C   0  0  0  0  0  0  0  0  0  0  0  0
  -22.5415   -9.0067  -13.7537 C   0  0  0  0  0  0  0  0  0  0  0  0
  -21.8572  -10.3831  -13.4468 C   0  0  2  0  0  0  0  0  0  0  0  0
  -22.6773  -11.7414  -13.3384 C   0  0  0  0  0  0  0  0  0  0  0  0
  -23.4142  -11.7531  -11.9725 C   0  0  0  0  0  0  0  0  0  0  0  0
  -24.3216  -12.8150  -11.3270 C   0  0  0  0  0  0  0  0  0  0  0  0
  -24.6233  -12.2523   -9.8939 C   0  0  0  0  0  0  0  0  0  0  0  0
  -25.7790  -12.8509   -9.0927 C   0  0  0  0  0  0  0  0  0  0  0  0
  -25.5381  -14.2670   -8.6034 C   0  0  0  0  0  0  0  0  0  0  0  0
  -20.3245  -10.4555  -13.6569 C   0  0  0  0  0  0  0  0  0  0  0  0
  -19.5115  -10.7598  -12.3208 C   0  0  1  0  0  3  0  0  0  0  0  0
  -18.0869  -11.3110  -12.7149 C   0  0  0  0  0  0  0  0  0  0  0  0
  -18.0845  -12.8288  -13.2333 C   0  0  1  0  0  0  0  0  0  0  0  0
  -17.3853  -13.8079  -12.2288 C   0  0  0  0  0  0  0  0  0  0  0  0
  -15.8466  -13.7154  -12.2065 C   0  0  0  0  0  0  0  0  0  0  0  0
  -15.2127  -14.3509  -10.9566 C   0  0  0  0  0  0  0  0  0  0  0  0
  -14.8000  -15.8219  -10.9972 C   0  0  0  0  0  0  0  0  0  0  0  0
  -13.5712  -16.1103  -11.8893 C   0  0  0  0  0  0  0  0  0  0  0  0
  -12.3159  -15.3015  -11.5083 C   0  0  0  0  0  0  0  0  0  0  0  0
  -17.6198  -13.1400  -14.7071 C   0  0  0  0  0  0  0  0  0  0  0  0
  -16.3099  -12.4769  -15.2111 C   0  0  0  0  0  0  0  0  0  0  0  0
  -15.5124  -13.3078  -16.2585 C   0  0  0  0  0  0  0  0  0  0  0  0
  -16.2949  -13.7762  -17.5026 C   0  0  0  0  0  0  0  0  0  0  0  0
  -15.4197  -14.5617  -18.5171 C   0  0  0  0  0  0  0  0  0  0  0  0
  -14.4008  -13.6715  -19.2606 C   0  0  0  0  0  0  0  0  0  0  0  0
  -13.5223  -14.4276  -20.2797 C   0  0  0  0  0  0  0  0  0  0  0  0
  -14.3047  -15.0553  -21.4352 C   0  0  0  0  0  0  0  0  0  0  0  0
  -25.9530   -2.8076  -15.5312 H   0  0  0  0  0  0  0  0  0  0  0  0
  -26.5812   -1.4103  -14.5975 H   0  0  0  0  0  0  0  0  0  0  0  0
  -27.4048   -3.0078  -14.4653 H   0  0  0  0  0  0  0  0  0  0  0  0
  -24.5442   -2.3368  -13.4875 H   0  0  0  0  0  0  0  0  0  0  0  0
  -26.0152   -2.4827  -12.4642 H   0  0  0  0  0  0  0  0  0  0  0  0
  -24.7156   -4.5266  -12.2771 H   0  0  0  0  0  0  0  0  0  0  0  0
  -26.2741   -4.8837  -13.1030 H   0  0  0  0  0  0  0  0  0  0  0  0
  -23.5105   -4.5033  -14.4449 H   0  0  0  0  0  0  0  0  0  0  0  0
  -25.0363   -4.8790  -15.3357 H   0  0  0  0  0  0  0  0  0  0  0  0
  -23.7678   -6.6485  -13.1715 H   0  0  0  0  0  0  0  0  0  0  0  0
  -25.2529   -7.0482  -14.1213 H   0  0  0  0  0  0  0  0  0  0  0  0
  -23.8457   -6.9590  -16.2605 H   0  0  0  0  0  0  0  0  0  0  0  0
  -22.4103   -6.5979  -15.2438 H   0  0  0  0  0  0  0  0  0  0  0  0
  -23.9840   -9.2771  -15.3370 H   0  0  0  0  0  0  0  0  0  0  0  0
  -22.3103   -8.9195  -15.9150 H   0  0  0  0  0  0  0  0  0  0  0  0
  -23.4168   -8.8760  -13.0893 H   0  0  0  0  0  0  0  0  0  0  0  0
  -21.7985   -8.2190  -13.4849 H   0  0  0  0  0  0  0  0  0  0  0  0
  -21.7156  -10.1696  -12.4408 H   0  0  0  0  0  0  0  0  0  0  0  0
  -23.3686  -11.8537  -14.2005 H   0  0  0  0  0  0  0  0  0  0  0  0
  -21.9733  -12.6012  -13.3327 H   0  0  0  0  0  0  0  0  0  0  0  0
  -22.5943  -11.6422  -11.2255 H   0  0  0  0  0  0  0  0  0  0  0  0
  -24.0833  -10.8827  -12.0531 H   0  0  0  0  0  0  0  0  0  0  0  0
  -23.8279  -13.8074  -11.2493 H   0  0  0  0  0  0  0  0  0  0  0  0
  -25.2526  -12.9037  -11.9254 H   0  0  0  0  0  0  0  0  0  0  0  0
  -23.6931  -12.2737   -9.2786 H   0  0  0  0  0  0  0  0  0  0  0  0
  -24.9110  -11.1879   -9.9922 H   0  0  0  0  0  0  0  0  0  0  0  0
  -26.7131  -12.7916   -9.6890 H   0  0  0  0  0  0  0  0  0  0  0  0
  -25.9117  -12.2135   -8.1869 H   0  0  0  0  0  0  0  0  0  0  0  0
  -24.6307  -14.3005   -7.9626 H   0  0  0  0  0  0  0  0  0  0  0  0
  -25.4298  -14.9620   -9.4578 H   0  0  0  0  0  0  0  0  0  0  0  0
  -26.4103  -14.5757   -7.9862 H   0  0  0  0  0  0  0  0  0  0  0  0
  -19.9396   -9.4846  -14.0366 H   0  0  0  0  0  0  0  0  0  0  0  0
  -20.1298  -11.2057  -14.4524 H   0  0  0  0  0  0  0  0  0  0  0  0
  -17.6092  -10.6327  -13.4537 H   0  0  0  0  0  0  0  0  0  0  0  0
  -17.4603  -11.2530  -11.8059 H   0  0  0  0  0  0  0  0  0  0  0  0
  -19.1427  -13.1717  -13.1899 H   0  0  0  0  0  0  0  0  0  0  0  0
  -17.7975  -13.5658  -11.2241 H   0  0  0  0  0  0  0  0  0  0  0  0
  -17.6582  -14.8639  -12.4468 H   0  0  0  0  0  0  0  0  0  0  0  0
  -15.3619  -14.0946  -13.1276 H   0  0  0  0  0  0  0  0  0  0  0  0
  -15.6372  -12.6387  -12.1537 H   0  0  0  0  0  0  0  0  0  0  0  0
  -14.2901  -13.7968  -10.7373 H   0  0  0  0  0  0  0  0  0  0  0  0
  -15.9023  -14.1977  -10.1049 H   0  0  0  0  0  0  0  0  0  0  0  0
  -15.6628  -16.4568  -11.2857 H   0  0  0  0  0  0  0  0  0  0  0  0
  -14.5073  -16.0988   -9.9584 H   0  0  0  0  0  0  0  0  0  0  0  0
  -13.8094  -15.9271  -12.9561 H   0  0  0  0  0  0  0  0  0  0  0  0
  -13.3239  -17.1864  -11.7642 H   0  0  0  0  0  0  0  0  0  0  0  0
  -12.0738  -15.4258  -10.4301 H   0  0  0  0  0  0  0  0  0  0  0  0
  -11.4476  -15.6469  -12.1061 H   0  0  0  0  0  0  0  0  0  0  0  0
  -12.4397  -14.2216  -11.7311 H   0  0  0  0  0  0  0  0  0  0  0  0
  -18.4128  -12.8737  -15.4381 H   0  0  0  0  0  0  0  0  0  0  0  0
  -17.5172  -14.2475  -14.7669 H   0  0  0  0  0  0  0  0  0  0  0  0
  -15.5993  -12.3037  -14.3866 H   0  0  0  0  0  0  0  0  0  0  0  0
  -16.5607  -11.4711  -15.6088 H   0  0  0  0  0  0  0  0  0  0  0  0
  -14.6475  -12.6862  -16.5677 H   0  0  0  0  0  0  0  0  0  0  0  0
  -15.1107  -14.2163  -15.7560 H   0  0  0  0  0  0  0  0  0  0  0  0
  -16.7710  -12.9160  -18.0170 H   0  0  0  0  0  0  0  0  0  0  0  0
  -17.0962  -14.4640  -17.1565 H   0  0  0  0  0  0  0  0  0  0  0  0
  -14.8955  -15.3968  -18.0007 H   0  0  0  0  0  0  0  0  0  0  0  0
  -16.1045  -15.0028  -19.2711 H   0  0  0  0  0  0  0  0  0  0  0  0
  -13.7108  -13.2083  -18.5271 H   0  0  0  0  0  0  0  0  0  0  0  0
  -14.9445  -12.8593  -19.7903 H   0  0  0  0  0  0  0  0  0  0  0  0
  -12.8071  -13.6971  -20.7188 H   0  0  0  0  0  0  0  0  0  0  0  0
  -12.9326  -15.2163  -19.7647 H   0  0  0  0  0  0  0  0  0  0  0  0
  -14.9842  -15.8528  -21.0729 H   0  0  0  0  0  0  0  0  0  0  0  0
  -13.5927  -15.5169  -22.1535 H   0  0  0  0  0  0  0  0  0  0  0  0
  -14.8916  -14.2811  -21.9732 H   0  0  0  0  0  0  0  0  0  0  0  0
   -4.9232   -9.4531   -8.7684 H   0  0  0  0  0  0  0  0  0  0  0  0
  -28.0737   -6.4181  -10.3467 H   0  0  0  0  0  0  0  0  0  0  0  0
  1 40  1  6  0  0  0
  2  1  1  0  0  0  0
  2  6  1  1  0  0  0
  3  2  1  0  0  0  0
  3  4  1  1  0  0  0
  5  4  1  1  0  0  0
  6  5  1  0  0  0  0
  7  3  1  0  0  0  0
  7 11  1  1  0  0  0
  8  1  1  0  0  0  0
  8  7  1  0  0  0  0
  8  9  1  1  0  0  0
 10  9  1  0  0  0  0
 11 10  1  0  0  0  0
 12  6  1  0  0  0  0
 13  9  1  0  0  0  0
 15 14  1  0  0  0  0
 16  5  1  0  0  0  0
 16 15  1  6  0  0  0
 17 16  1  0  0  0  0
 17 18  1  1  0  0  0
 19 18  1  0  0  0  0
 20 19  1  0  0  0  0
 21 17  1  0  0  0  0
 21 20  1  6  0  0  0
 22 14  1  0  0  0  0
 22 21  1  0  0  0  0
 23 15  1  0  0  0  0
 25 24  1  0  0  0  0
 26 25  1  0  0  0  0
 27 26  1  0  0  0  0
 28 27  1  0  0  0  0
 29 28  1  0  0  0  0
 30 29  1  0  0  0  0
 31 30  1  0  0  0  0
 32 31  1  0  0  0  0
 32 74  1  6  0  0  0
 33 32  1  0  0  0  0
 34 33  1  0  0  0  0
 35 34  1  0  0  0  0
 36 35  1  0  0  0  0
 37 36  1  0  0  0  0
 38 37  1  0  0  0  0
 39 32  1  0  0  0  0
 40 39  1  1  0  0  0
 41 40  1  0  0  0  0
 42 41  1  0  0  0  0
 42 92  1  1  0  0  0
 43 42  1  0  0  0  0
 44 43  1  0  0  0  0
 45 44  1  0  0  0  0
 46 45  1  0  0  0  0
 47 46  1  0  0  0  0
 48 47  1  0  0  0  0
 49 42  1  0  0  0  0
 50 49  1  0  0  0  0
 51 50  1  0  0  0  0
 52 51  1  0  0  0  0
 53 52  1  0  0  0  0
 54 53  1  0  0  0  0
 55 54  1  0  0  0  0
 56 55  1  0  0  0  0
 57 24  1  0  0  0  0
 58 24  1  0  0  0  0
 59 24  1  0  0  0  0
 60 25  1  0  0  0  0
 61 25  1  0  0  0  0
 62 26  1  0  0  0  0
 63 26  1  0  0  0  0
 64 27  1  0  0  0  0
 65 27  1  0  0  0  0
 66 28  1  0  0  0  0
 67 28  1  0  0  0  0
 68 29  1  0  0  0  0
 69 29  1  0  0  0  0
 70 30  1  0  0  0  0
 71 30  1  0  0  0  0
 72 31  1  0  0  0  0
 73 31  1  0  0  0  0
 75 33  1  0  0  0  0
 76 33  1  0  0  0  0
 77 34  1  0  0  0  0
 78 34  1  0  0  0  0
 79 35  1  0  0  0  0
 80 35  1  0  0  0  0
 81 36  1  0  0  0  0
 82 36  1  0  0  0  0
 83 37  1  0  0  0  0
 84 37  1  0  0  0  0
 85 38  1  0  0  0  0
 86 38  1  0  0  0  0
 87 38  1  0  0  0  0
 88 39  1  0  0  0  0
 89 39  1  0  0  0  0
 90 41  1  0  0  0  0
 91 41  1  0  0  0  0
 93 43  1  0  0  0  0
 94 43  1  0  0  0  0
 95 44  1  0  0  0  0
 96 44  1  0  0  0  0
 97 45  1  0  0  0  0
 98 45  1  0  0  0  0
 99 46  1  0  0  0  0
100 46  1  0  0  0  0
101 47  1  0  0  0  0
102 47  1  0  0  0  0
103 48  1  0  0  0  0
104 48  1  0  0  0  0
105 48  1  0  0  0  0
106 49  1  0  0  0  0
107 49  1  0  0  0  0
108 50  1  0  0  0  0
109 50  1  0  0  0  0
110 51  1  0  0  0  0
111 51  1  0  0  0  0
112 52  1  0  0  0  0
113 52  1  0  0  0  0
114 53  1  0  0  0  0
115 53  1  0  0  0  0
116 54  1  0  0  0  0
117 54  1  0  0  0  0
118 55  1  0  0  0  0
119 55  1  0  0  0  0
120 56  1  0  0  0  0
121 56  1  0  0  0  0
122 56  1  0  0  0  0
123 10  1  0  0  0  0
124 22  1  0  0  0  0
125164  1  6  0  0  0
126125  1  0  0  0  0
126130  1  1  0  0  0
127126  1  0  0  0  0
127128  1  6  0  0  0
129128  1  6  0  0  0
130129  1  0  0  0  0
131127  1  0  0  0  0
131135  1  6  0  0  0
132125  1  0  0  0  0
132131  1  0  0  0  0
132133  1  1  0  0  0
134133  1  0  0  0  0
135134  1  0  0  0  0
136130  1  0  0  0  0
137133  1  0  0  0  0
139138  1  0  0  0  0
140129  1  0  0  0  0
140139  1  6  0  0  0
141140  1  0  0  0  0
141142  1  1  0  0  0
143142  1  0  0  0  0
144143  1  0  0  0  0
145141  1  0  0  0  0
145144  1  6  0  0  0
146138  1  6  0  0  0
146145  1  0  0  0  0
147139  1  0  0  0  0
149148  1  0  0  0  0
150149  1  0  0  0  0
151150  1  0  0  0  0
152151  1  0  0  0  0
153152  1  0  0  0  0
154153  1  0  0  0  0
155154  1  0  0  0  0
156155  1  0  0  0  0
156198  1  6  0  0  0
157156  1  0  0  0  0
158157  1  0  0  0  0
159158  1  0  0  0  0
160159  1  0  0  0  0
161160  1  0  0  0  0
162161  1  0  0  0  0
163156  1  0  0  0  0
164163  1  6  0  0  0
165164  1  0  0  0  0
166165  1  0  0  0  0
166216  1  6  0  0  0
167166  1  0  0  0  0
168167  1  0  0  0  0
169168  1  0  0  0  0
170169  1  0  0  0  0
171170  1  0  0  0  0
172171  1  0  0  0  0
173166  1  0  0  0  0
174173  1  0  0  0  0
175174  1  0  0  0  0
176175  1  0  0  0  0
177176  1  0  0  0  0
178177  1  0  0  0  0
179178  1  0  0  0  0
180179  1  0  0  0  0
181148  1  0  0  0  0
182148  1  0  0  0  0
183148  1  0  0  0  0
184149  1  0  0  0  0
185149  1  0  0  0  0
186150  1  0  0  0  0
187150  1  0  0  0  0
188151  1  0  0  0  0
189151  1  0  0  0  0
190152  1  0  0  0  0
191152  1  0  0  0  0
192153  1  0  0  0  0
193153  1  0  0  0  0
194154  1  0  0  0  0
195154  1  0  0  0  0
196155  1  0  0  0  0
197155  1  0  0  0  0
199157  1  0  0  0  0
200157  1  0  0  0  0
201158  1  0  0  0  0
202158  1  0  0  0  0
203159  1  0  0  0  0
204159  1  0  0  0  0
205160  1  0  0  0  0
206160  1  0  0  0  0
207161  1  0  0  0  0
208161  1  0  0  0  0
209162  1  0  0  0  0
210162  1  0  0  0  0
211162  1  0  0  0  0
212163  1  0  0  0  0
213163  1  0  0  0  0
214165  1  0  0  0  0
215165  1  0  0  0  0
217167  1  0  0  0  0
218167  1  0  0  0  0
219168  1  0  0  0  0
220168  1  0  0  0  0
221169  1  0  0  0  0
222169  1  0  0  0  0
223170  1  0  0  0  0
224170  1  0  0  0  0
225171  1  0  0  0  0
226171  1  0  0  0  0
227172  1  0  0  0  0
228172  1  0  0  0  0
229172  1  0  0  0  0
230173  1  0  0  0  0
231173  1  0  0  0  0
232174  1  0  0  0  0
233174  1  0  0  0  0
234175  1  0  0  0  0
235175  1  0  0  0  0
236176  1  0  0  0  0
237176  1  0  0  0  0
238177  1  0  0  0  0
239177  1  0  0  0  0
240178  1  0  0  0  0
241178  1  0  0  0  0
242179  1  0  0  0  0
243179  1  0  0  0  0
244180  1  0  0  0  0
245180  1  0  0  0  0
246180  1  0  0  0  0
247286  1  1  0  0  0
248247  1  0  0  0  0
248252  1  1  0  0  0
249248  1  0  0  0  0
249250  1  1  0  0  0
251250  1  1  0  0  0
252251  1  0  0  0  0
253249  1  0  0  0  0
253257  1  1  0  0  0
254247  1  0  0  0  0
254253  1  0  0  0  0
254255  1  6  0  0  0
256146  1  0  0  0  0
256255  1  6  0  0  0
257256  1  0  0  0  0
258252  1  0  0  0  0
259255  1  0  0  0  0
261260  1  0  0  0  0
262251  1  0  0  0  0
262261  1  6  0  0  0
263262  1  0  0  0  0
263264  1  6  0  0  0
265264  1  0  0  0  0
266265  1  0  0  0  0
267263  1  0  0  0  0
267266  1  1  0  0  0
268260  1  0  0  0  0
268267  1  0  0  0  0
269261  1  0  0  0  0
271270  1  0  0  0  0
272271  1  0  0  0  0
273272  1  0  0  0  0
274273  1  0  0  0  0
275274  1  0  0  0  0
276275  1  0  0  0  0
277276  1  0  0  0  0
278277  1  0  0  0  0
278320  1  6  0  0  0
279278  1  0  0  0  0
280279  1  0  0  0  0
281280  1  0  0  0  0
282281  1  0  0  0  0
283282  1  0  0  0  0
284283  1  0  0  0  0
285278  1  0  0  0  0
286285  1  6  0  0  0
287286  1  0  0  0  0
288287  1  0  0  0  0
288338  1  6  0  0  0
289288  1  0  0  0  0
290289  1  0  0  0  0
291290  1  0  0  0  0
292291  1  0  0  0  0
293292  1  0  0  0  0
294293  1  0  0  0  0
295288  1  0  0  0  0
296295  1  0  0  0  0
297296  1  0  0  0  0
298297  1  0  0  0  0
299298  1  0  0  0  0
300299  1  0  0  0  0
301300  1  0  0  0  0
302301  1  0  0  0  0
303270  1  0  0  0  0
304270  1  0  0  0  0
305270  1  0  0  0  0
306271  1  0  0  0  0
307271  1  0  0  0  0
308272  1  0  0  0  0
309272  1  0  0  0  0
310273  1  0  0  0  0
311273  1  0  0  0  0
312274  1  0  0  0  0
313274  1  0  0  0  0
314275  1  0  0  0  0
315275  1  0  0  0  0
316276  1  0  0  0  0
317276  1  0  0  0  0
318277  1  0  0  0  0
319277  1  0  0  0  0
321279  1  0  0  0  0
322279  1  0  0  0  0
323280  1  0  0  0  0
324280  1  0  0  0  0
325281  1  0  0  0  0
326281  1  0  0  0  0
327282  1  0  0  0  0
328282  1  0  0  0  0
329283  1  0  0  0  0
330283  1  0  0  0  0
331284  1  0  0  0  0
332284  1  0  0  0  0
333284  1  0  0  0  0
334285  1  0  0  0  0
335285  1  0  0  0  0
336287  1  0  0  0  0
337287  1  0  0  0  0
339289  1  0  0  0  0
340289  1  0  0  0  0
341290  1  0  0  0  0
342290  1  0  0  0  0
343291  1  0  0  0  0
344291  1  0  0  0  0
345292  1  0  0  0  0
346292  1  0  0  0  0
347293  1  0  0  0  0
348293  1  0  0  0  0
349294  1  0  0  0  0
350294  1  0  0  0  0
351294  1  0  0  0  0
352295  1  0  0  0  0
353295  1  0  0  0  0
354296  1  0  0  0  0
355296  1  0  0  0  0
356297  1  0  0  0  0
357297  1  0  0  0  0
358298  1  0  0  0  0
359298  1  0  0  0  0
360299  1  0  0  0  0
361299  1  0  0  0  0
362300  1  0  0  0  0
363300  1  0  0  0  0
364301  1  0  0  0  0
365301  1  0  0  0  0
366302  1  0  0  0  0
367302  1  0  0  0  0
368302  1  0  0  0  0
369134  1  0  0  0  0
370268  1  0  0  0  0
M  END
$$$$
