Compound
 OpenBabel02232315293D

124128  0  0  1  0  0  0  0  0999 V2000
   -0.1635    1.0847   -0.8884 C   0  0  2  0  0  3  0  0  0  0  0  0
   -0.9169    1.8789   -0.1261 C   0  0  1  0  0  3  0  0  0  0  0  0
   -0.1620    2.8296    0.4720 C   0  0  2  0  0  3  0  0  0  0  0  0
   -1.0690    3.7317    1.5503 S   0  0  0  0  0  0  0  0  0  0  0  0
   -2.5150    2.9009    1.1665 C   0  0  0  0  0  3  0  0  0  0  0  0
   -2.2622    1.8937    0.2262 C   0  0  0  0  0  3  0  0  0  0  0  0
    1.1004    2.7255    0.1036 C   0  0  1  0  0  3  0  0  0  0  0  0
    1.2367    1.6777   -0.9018 C   0  0  2  0  0  3  0  0  0  0  0  0
    2.4523    0.9703   -0.4562 C   0  0  0  0  0  3  0  0  0  0  0  0
    3.2575    1.7029    0.3499 C   0  0  1  0  0  3  0  0  0  0  0  0
    2.6117    3.3860    0.7280 S   0  0  0  0  0  0  0  0  0  0  0  0
   -3.4826    3.0999    1.6066 H   0  0  0  0  0  0  0  0  0  0  0  0
   -3.0074    1.2045   -0.1504 H   0  0  0  0  0  0  0  0  0  0  0  0
    2.6955   -0.0055   -0.8409 H   0  0  0  0  0  0  0  0  0  0  0  0
    5.5595    2.0289    1.4162 C   0  0  1  0  0  3  0  0  0  0  0  0
    5.4135    3.3640    1.6044 N   0  0  0  0  0  2  0  0  0  0  0  0
    6.8556    3.8033    2.2803 S   0  0  0  0  0  0  0  0  0  0  0  0
    7.6973    2.3862    2.3621 N   0  0  0  0  0  2  0  0  0  0  0  0
    6.8158    1.5005    1.8342 C   0  0  1  0  0  3  0  0  0  0  0  0
    7.0920    0.1513    1.6788 C   0  0  0  0  0  3  0  0  0  0  0  0
    6.1463   -0.6551    1.1278 N   0  0  0  0  0  2  0  0  0  0  0  0
    4.9362   -0.1861    0.7093 C   0  0  0  0  0  3  0  0  0  0  0  0
    4.5880    1.1860    0.8369 C   0  0  2  0  0  3  0  0  0  0  0  0
    8.0429   -0.2637    1.9857 H   0  0  0  0  0  0  0  0  0  0  0  0
    4.2532   -0.9078    0.2905 H   0  0  0  0  0  0  0  0  0  0  0  0
   -0.6077   -0.1176   -1.7124 C   0  0  2  0  0  3  0  0  0  0  0  0
   -0.1801   -1.4412   -0.9630 C   0  0  0  0  0  0  0  0  0  0  0  0
   -0.9940   -1.5942    0.3964 C   0  0  2  0  0  0  0  0  0  0  0  0
   -2.1928   -2.5893    0.3377 C   0  0  0  0  0  0  0  0  0  0  0  0
   -1.9754   -4.0018    0.9274 C   0  0  0  0  0  0  0  0  0  0  0  0
   -0.9690   -4.9091    0.2136 C   0  0  0  0  0  0  0  0  0  0  0  0
   -1.3425   -5.2795   -1.2295 C   0  0  0  0  0  0  0  0  0  0  0  0
   -2.7048   -5.9822   -1.3432 C   0  0  0  0  0  0  0  0  0  0  0  0
   -2.9697   -6.4180   -2.7794 C   0  0  0  0  0  0  0  0  0  0  0  0
   -0.2056   -1.6833    1.7512 C   0  0  0  0  0  0  0  0  0  0  0  0
    0.7301   -0.4886    1.9758 C   0  0  0  0  0  0  0  0  0  0  0  0
    1.0965   -0.1559    3.4288 C   0  0  0  0  0  0  0  0  0  0  0  0
    1.9800   -1.1736    4.1599 C   0  0  0  0  0  0  0  0  0  0  0  0
    2.3043   -0.7158    5.6046 C   0  0  0  0  0  0  0  0  0  0  0  0
    3.1409    0.5842    5.6691 C   0  0  0  0  0  0  0  0  0  0  0  0
    3.4147    1.0809    7.0993 C   0  0  0  0  0  0  0  0  0  0  0  0
    4.2725    0.1300    7.9297 C   0  0  0  0  0  0  0  0  0  0  0  0
   -0.1327    0.2563   -3.1542 C   0  0  0  0  0  0  0  0  0  0  0  0
   -0.4810   -0.4063   -4.5292 C   0  0  1  0  0  0  0  0  0  0  0  0
   -1.6982   -1.3485   -4.5905 C   0  0  0  0  0  0  0  0  0  0  0  0
   -2.9844   -0.7078   -4.0507 C   0  0  0  0  0  0  0  0  0  0  0  0
   -4.2004   -1.5931   -4.3503 C   0  0  0  0  0  0  0  0  0  0  0  0
   -5.4697   -1.0132   -3.7169 C   0  0  0  0  0  0  0  0  0  0  0  0
   -6.6998   -1.8497   -4.0867 C   0  0  0  0  0  0  0  0  0  0  0  0
   -7.9508   -1.3214   -3.3910 C   0  0  0  0  0  0  0  0  0  0  0  0
    0.7839   -0.9711   -5.2434 C   0  0  0  0  0  0  0  0  0  0  0  0
    0.6913   -0.8540   -6.7883 C   0  0  0  0  0  0  0  0  0  0  0  0
    2.0488   -1.1342   -7.4589 C   0  0  0  0  0  0  0  0  0  0  0  0
    2.1189   -0.7003   -8.9369 C   0  0  0  0  0  0  0  0  0  0  0  0
    1.1346   -1.4421   -9.8570 C   0  0  0  0  0  0  0  0  0  0  0  0
    1.2164   -1.0144  -11.3396 C   0  0  0  0  0  0  0  0  0  0  0  0
    2.3210   -1.6656  -12.2034 C   0  0  0  0  0  0  0  0  0  0  0  0
    3.7642   -1.3433  -11.8291 C   0  0  0  0  0  0  0  0  0  0  0  0
    0.9073   -1.4168   -0.7630 H   0  0  0  0  0  0  0  0  0  0  0  0
   -0.3551   -2.3217   -1.6105 H   0  0  0  0  0  0  0  0  0  0  0  0
   -1.5268   -0.6341    0.4965 H   0  0  0  0  0  0  0  0  0  0  0  0
   -2.6363   -2.6169   -0.6809 H   0  0  0  0  0  0  0  0  0  0  0  0
   -2.9819   -2.1665    1.0017 H   0  0  0  0  0  0  0  0  0  0  0  0
   -2.9584   -4.5154    0.9723 H   0  0  0  0  0  0  0  0  0  0  0  0
   -1.6560   -3.9029    1.9867 H   0  0  0  0  0  0  0  0  0  0  0  0
    0.0331   -4.4318    0.2235 H   0  0  0  0  0  0  0  0  0  0  0  0
   -0.8980   -5.8514    0.8025 H   0  0  0  0  0  0  0  0  0  0  0  0
   -1.3447   -4.3734   -1.8665 H   0  0  0  0  0  0  0  0  0  0  0  0
   -0.5521   -5.9667   -1.6033 H   0  0  0  0  0  0  0  0  0  0  0  0
   -3.5187   -5.2906   -1.0401 H   0  0  0  0  0  0  0  0  0  0  0  0
   -2.7288   -6.8785   -0.6853 H   0  0  0  0  0  0  0  0  0  0  0  0
   -2.1966   -7.1454   -3.1064 H   0  0  0  0  0  0  0  0  0  0  0  0
   -2.9558   -5.5373   -3.4565 H   0  0  0  0  0  0  0  0  0  0  0  0
   -3.9662   -6.9033   -2.8434 H   0  0  0  0  0  0  0  0  0  0  0  0
   -0.9749   -1.6482    2.5548 H   0  0  0  0  0  0  0  0  0  0  0  0
    0.3637   -2.6306    1.8582 H   0  0  0  0  0  0  0  0  0  0  0  0
    1.6407   -0.6114    1.3637 H   0  0  0  0  0  0  0  0  0  0  0  0
    0.1834    0.4101    1.6617 H   0  0  0  0  0  0  0  0  0  0  0  0
    0.1619    0.0072    4.0094 H   0  0  0  0  0  0  0  0  0  0  0  0
    1.6398    0.8084    3.3697 H   0  0  0  0  0  0  0  0  0  0  0  0
    2.9262   -1.3305    3.5981 H   0  0  0  0  0  0  0  0  0  0  0  0
    1.4361   -2.1412    4.2135 H   0  0  0  0  0  0  0  0  0  0  0  0
    1.3525   -0.5702    6.1621 H   0  0  0  0  0  0  0  0  0  0  0  0
    2.8717   -1.5328    6.0961 H   0  0  0  0  0  0  0  0  0  0  0  0
    4.1040    0.4366    5.1338 H   0  0  0  0  0  0  0  0  0  0  0  0
    2.5914    1.4094    5.1758 H   0  0  0  0  0  0  0  0  0  0  0  0
    3.9572    2.0497    7.0265 H   0  0  0  0  0  0  0  0  0  0  0  0
    2.4522    1.2672    7.6240 H   0  0  0  0  0  0  0  0  0  0  0  0
    5.2466   -0.0469    7.4269 H   0  0  0  0  0  0  0  0  0  0  0  0
    3.7545   -0.8363    8.0922 H   0  0  0  0  0  0  0  0  0  0  0  0
    4.4653    0.5877    8.9236 H   0  0  0  0  0  0  0  0  0  0  0  0
   -0.6306    1.2514   -3.2653 H   0  0  0  0  0  0  0  0  0  0  0  0
    0.9467    0.5109   -3.1449 H   0  0  0  0  0  0  0  0  0  0  0  0
   -0.7437    0.4726   -5.1656 H   0  0  0  0  0  0  0  0  0  0  0  0
   -1.8649   -1.6071   -5.6591 H   0  0  0  0  0  0  0  0  0  0  0  0
   -1.4866   -2.2881   -4.0360 H   0  0  0  0  0  0  0  0  0  0  0  0
   -2.8899   -0.5609   -2.9557 H   0  0  0  0  0  0  0  0  0  0  0  0
   -3.1465    0.2814   -4.5332 H   0  0  0  0  0  0  0  0  0  0  0  0
   -4.0331   -2.6162   -3.9475 H   0  0  0  0  0  0  0  0  0  0  0  0
   -4.3291   -1.6600   -5.4542 H   0  0  0  0  0  0  0  0  0  0  0  0
   -5.3417   -1.0053   -2.6118 H   0  0  0  0  0  0  0  0  0  0  0  0
   -5.6246    0.0312   -4.0674 H   0  0  0  0  0  0  0  0  0  0  0  0
   -6.5449   -2.9075   -3.7825 H   0  0  0  0  0  0  0  0  0  0  0  0
   -6.8531   -1.8137   -5.1880 H   0  0  0  0  0  0  0  0  0  0  0  0
   -8.8284   -1.9341   -3.6865 H   0  0  0  0  0  0  0  0  0  0  0  0
   -7.8290   -1.3850   -2.2884 H   0  0  0  0  0  0  0  0  0  0  0  0
   -8.1392   -0.2649   -3.6773 H   0  0  0  0  0  0  0  0  0  0  0  0
    1.0322   -1.9960   -4.8950 H   0  0  0  0  0  0  0  0  0  0  0  0
    1.6426   -0.3152   -4.9847 H   0  0  0  0  0  0  0  0  0  0  0  0
    0.4316    0.2009   -7.0328 H   0  0  0  0  0  0  0  0  0  0  0  0
   -0.0992   -1.5151   -7.1982 H   0  0  0  0  0  0  0  0  0  0  0  0
    2.3136   -2.2070   -7.3487 H   0  0  0  0  0  0  0  0  0  0  0  0
    2.8271   -0.5314   -6.9395 H   0  0  0  0  0  0  0  0  0  0  0  0
    3.1586   -0.8581   -9.2539 H   0  0  0  0  0  0  0  0  0  0  0  0
    1.9210    0.3936   -9.0070 H   0  0  0  0  0  0  0  0  0  0  0  0
    0.1174   -1.1668   -9.5049 H   0  0  0  0  0  0  0  0  0  0  0  0
    1.2421   -2.5444   -9.7760 H   0  0  0  0  0  0  0  0  0  0  0  0
    0.2653   -1.3442  -11.8133 H   0  0  0  0  0  0  0  0  0  0  0  0
    1.2487    0.0947  -11.4184 H   0  0  0  0  0  0  0  0  0  0  0  0
    2.1915   -2.7695  -12.2053 H   0  0  0  0  0  0  0  0  0  0  0  0
    2.1668   -1.3051  -13.2443 H   0  0  0  0  0  0  0  0  0  0  0  0
    4.4407   -1.7718  -12.5988 H   0  0  0  0  0  0  0  0  0  0  0  0
    4.0471   -1.8251  -10.8762 H   0  0  0  0  0  0  0  0  0  0  0  0
    3.9246   -0.2452  -11.7878 H   0  0  0  0  0  0  0  0  0  0  0  0
  1 26  1  6  0  0  0
  2  1  1  0  0  0  0
  2  6  1  6  0  0  0
  3  2  1  0  0  0  0
  3  4  1  6  0  0  0
  5  4  1  0  0  0  0
  6  5  1  0  0  0  0
  7  3  1  0  0  0  0
  7 11  1  6  0  0  0
  8  1  1  0  0  0  0
  8  7  1  0  0  0  0
  8  9  1  6  0  0  0
 10  9  1  1  0  0  0
 11 10  1  0  0  0  0
 12  5  1  0  0  0  0
 13  6  1  0  0  0  0
 14  9  1  0  0  0  0
 15 16  1  1  0  0  0
 17 16  1  0  0  0  0
 18 17  1  0  0  0  0
 19 15  1  0  0  0  0
 19 18  1  1  0  0  0
 20 19  1  0  0  0  0
 21 20  1  0  0  0  0
 22 21  1  0  0  0  0
 23 10  1  0  0  0  0
 23 15  1  0  0  0  0
 23 22  1  6  0  0  0
 24 20  1  0  0  0  0
 25 22  1  0  0  0  0
 26 27  1  1  0  0  0
 28 27  1  0  0  0  0
 28 61  1  1  0  0  0
 29 28  1  0  0  0  0
 30 29  1  0  0  0  0
 31 30  1  0  0  0  0
 32 31  1  0  0  0  0
 33 32  1  0  0  0  0
 34 33  1  0  0  0  0
 35 28  1  0  0  0  0
 36 35  1  0  0  0  0
 37 36  1  0  0  0  0
 38 37  1  0  0  0  0
 39 38  1  0  0  0  0
 40 39  1  0  0  0  0
 41 40  1  0  0  0  0
 42 41  1  0  0  0  0
 43 26  1  0  0  0  0
 44 43  1  0  0  0  0
 44 94  1  1  0  0  0
 45 44  1  0  0  0  0
 46 45  1  0  0  0  0
 47 46  1  0  0  0  0
 48 47  1  0  0  0  0
 49 48  1  0  0  0  0
 50 49  1  0  0  0  0
 51 44  1  0  0  0  0
 52 51  1  0  0  0  0
 53 52  1  0  0  0  0
 54 53  1  0  0  0  0
 55 54  1  0  0  0  0
 56 55  1  0  0  0  0
 57 56  1  0  0  0  0
 58 57  1  0  0  0  0
 59 27  1  0  0  0  0
 60 27  1  0  0  0  0
 62 29  1  0  0  0  0
 63 29  1  0  0  0  0
 64 30  1  0  0  0  0
 65 30  1  0  0  0  0
 66 31  1  0  0  0  0
 67 31  1  0  0  0  0
 68 32  1  0  0  0  0
 69 32  1  0  0  0  0
 70 33  1  0  0  0  0
 71 33  1  0  0  0  0
 72 34  1  0  0  0  0
 73 34  1  0  0  0  0
 74 34  1  0  0  0  0
 75 35  1  0  0  0  0
 76 35  1  0  0  0  0
 77 36  1  0  0  0  0
 78 36  1  0  0  0  0
 79 37  1  0  0  0  0
 80 37  1  0  0  0  0
 81 38  1  0  0  0  0
 82 38  1  0  0  0  0
 83 39  1  0  0  0  0
 84 39  1  0  0  0  0
 85 40  1  0  0  0  0
 86 40  1  0  0  0  0
 87 41  1  0  0  0  0
 88 41  1  0  0  0  0
 89 42  1  0  0  0  0
 90 42  1  0  0  0  0
 91 42  1  0  0  0  0
 92 43  1  0  0  0  0
 93 43  1  0  0  0  0
 95 45  1  0  0  0  0
 96 45  1  0  0  0  0
 97 46  1  0  0  0  0
 98 46  1  0  0  0  0
 99 47  1  0  0  0  0
100 47  1  0  0  0  0
101 48  1  0  0  0  0
102 48  1  0  0  0  0
103 49  1  0  0  0  0
104 49  1  0  0  0  0
105 50  1  0  0  0  0
106 50  1  0  0  0  0
107 50  1  0  0  0  0
108 51  1  0  0  0  0
109 51  1  0  0  0  0
110 52  1  0  0  0  0
111 52  1  0  0  0  0
112 53  1  0  0  0  0
113 53  1  0  0  0  0
114 54  1  0  0  0  0
115 54  1  0  0  0  0
116 55  1  0  0  0  0
117 55  1  0  0  0  0
118 56  1  0  0  0  0
119 56  1  0  0  0  0
120 57  1  0  0  0  0
121 57  1  0  0  0  0
122 58  1  0  0  0  0
123 58  1  0  0  0  0
124 58  1  0  0  0  0
M  END
$$$$
