Compound
 OpenBabel05222314173D

 71 75  0  0  1  0  0  0  0  0999 V2000
   -0.3010   -0.4142   -1.6338 C   0  0  1  0  0  3  0  0  0  0  0  0
   -1.4140    0.1010   -0.7783 C   0  0  1  0  0  3  0  0  0  0  0  0
   -0.9918    1.0654    0.0668 C   0  0  1  0  0  3  0  0  0  0  0  0
   -2.2697    1.6907    0.9608 S   0  0  0  0  0  0  0  0  0  0  0  0
   -3.4097    0.6267    0.2479 C   0  0  2  0  0  3  0  0  0  0  0  0
   -2.7691   -0.1788   -0.7035 C   0  0  0  0  0  3  0  0  0  0  0  0
    0.4261    1.2457   -0.1268 C   0  0  2  0  0  3  0  0  0  0  0  0
    0.8303    0.4202   -1.0708 C   0  0  1  0  0  3  0  0  0  0  0  0
    2.2430    0.5521   -1.3634 C   0  0  0  0  0  3  0  0  0  0  0  0
    2.8104    1.4825   -0.5845 C   0  0  0  0  0  2  0  0  0  0  0  0
    1.6753    2.2973    0.5833 S   0  0  0  0  0  0  0  0  0  0  0  0
   -3.2502   -0.9073   -1.3331 H   0  0  0  0  0  0  0  0  0  0  0  0
    2.7773   -0.0193   -2.1081 H   0  0  0  0  0  0  0  0  0  0  0  0
   -5.4323    1.6482    1.0449 N   0  0  0  0  0  2  0  0  0  0  0  0
   -6.8432    1.7289    1.3089 C   0  0  0  0  0  3  0  0  0  0  0  0
   -7.6645    0.6863    1.0804 C   0  0  0  0  0  2  0  0  0  0  0  0
   -7.0818   -0.5553    0.5611 C   0  0  2  0  0  3  0  0  0  0  0  0
   -7.7827   -1.6925    0.3406 N   0  0  0  0  0  2  0  0  0  0  0  0
   -6.6071   -2.7282   -0.1858 S   0  0  0  0  0  0  0  0  0  0  0  0
   -5.2350   -1.8066   -0.1457 N   0  0  0  0  0  2  0  0  0  0  0  0
   -5.6959   -0.6099    0.2913 C   0  0  2  0  0  3  0  0  0  0  0  0
   -4.8613    0.5923    0.5496 C   0  0  1  0  0  3  0  0  0  0  0  0
   -7.2621    2.6573    1.6796 H   0  0  0  0  0  0  0  0  0  0  0  0
   -0.3201   -1.9535   -1.6716 C   0  0  0  0  0  3  0  0  0  0  0  0
    0.5951   -3.0637   -1.0816 C   0  0  2  0  0  0  0  0  0  0  0  0
   -0.0663   -4.4358   -1.4416 C   0  0  0  0  0  0  0  0  0  0  0  0
   -1.3272   -4.8529   -0.6352 C   0  0  0  0  0  0  0  0  0  0  0  0
   -2.5488   -3.9172   -0.7123 C   0  0  0  0  0  0  0  0  0  0  0  0
   -3.1723   -3.7480   -2.1115 C   0  0  0  0  0  0  0  0  0  0  0  0
   -3.8024   -5.0346   -2.6539 C   0  0  0  0  0  0  0  0  0  0  0  0
   -4.5268   -4.7631   -3.9712 C   0  0  0  0  0  0  0  0  0  0  0  0
    0.9208   -3.0458    0.4416 C   0  0  0  0  0  0  0  0  0  0  0  0
    1.9925   -2.0306    0.8235 C   0  0  0  0  0  0  0  0  0  0  0  0
    2.4016   -2.0859    2.2981 C   0  0  0  0  0  0  0  0  0  0  0  0
    3.4746   -1.0161    2.5478 C   0  0  0  0  0  0  0  0  0  0  0  0
    3.8683   -0.9109    4.0250 C   0  0  0  0  0  0  0  0  0  0  0  0
    4.9692    0.1399    4.2677 C   0  0  0  0  0  0  0  0  0  0  0  0
    4.5436    1.5696    3.8863 C   0  0  0  0  0  0  0  0  0  0  0  0
    5.6429    2.5782    4.2036 C   0  0  0  0  0  0  0  0  0  0  0  0
   -0.4741   -2.1821   -2.7467 H   0  0  0  0  0  0  0  0  0  0  0  0
    1.5537   -3.0327   -1.6455 H   0  0  0  0  0  0  0  0  0  0  0  0
    0.6899   -5.2307   -1.2583 H   0  0  0  0  0  0  0  0  0  0  0  0
   -0.2905   -4.4753   -2.5298 H   0  0  0  0  0  0  0  0  0  0  0  0
   -1.0451   -4.9444    0.4346 H   0  0  0  0  0  0  0  0  0  0  0  0
   -1.6320   -5.8684   -0.9637 H   0  0  0  0  0  0  0  0  0  0  0  0
   -2.2610   -2.9271   -0.3112 H   0  0  0  0  0  0  0  0  0  0  0  0
   -3.3355   -4.3073   -0.0300 H   0  0  0  0  0  0  0  0  0  0  0  0
   -2.4304   -3.3570   -2.8340 H   0  0  0  0  0  0  0  0  0  0  0  0
   -3.9823   -2.9972   -2.0275 H   0  0  0  0  0  0  0  0  0  0  0  0
   -3.0212   -5.8045   -2.8214 H   0  0  0  0  0  0  0  0  0  0  0  0
   -4.5436   -5.4218   -1.9209 H   0  0  0  0  0  0  0  0  0  0  0  0
   -5.3332   -4.0125   -3.8190 H   0  0  0  0  0  0  0  0  0  0  0  0
   -4.9865   -5.7010   -4.3463 H   0  0  0  0  0  0  0  0  0  0  0  0
   -3.8157   -4.3801   -4.7335 H   0  0  0  0  0  0  0  0  0  0  0  0
    1.3608   -4.0339    0.7048 H   0  0  0  0  0  0  0  0  0  0  0  0
   -0.0026   -2.9047    1.0434 H   0  0  0  0  0  0  0  0  0  0  0  0
    2.8936   -2.2012    0.1922 H   0  0  0  0  0  0  0  0  0  0  0  0
    1.5988   -1.0330    0.6615 H   0  0  0  0  0  0  0  0  0  0  0  0
    1.5089   -1.8776    2.9282 H   0  0  0  0  0  0  0  0  0  0  0  0
    2.8020   -3.0906    2.5570 H   0  0  0  0  0  0  0  0  0  0  0  0
    4.3763   -1.2539    1.9405 H   0  0  0  0  0  0  0  0  0  0  0  0
    3.0639   -0.0417    2.2150 H   0  0  0  0  0  0  0  0  0  0  0  0
    2.9725   -0.6530    4.6311 H   0  0  0  0  0  0  0  0  0  0  0  0
    4.2496   -1.8980    4.3665 H   0  0  0  0  0  0  0  0  0  0  0  0
    5.8807   -0.1419    3.6959 H   0  0  0  0  0  0  0  0  0  0  0  0
    5.2201    0.1217    5.3508 H   0  0  0  0  0  0  0  0  0  0  0  0
    3.6262    1.8484    4.4485 H   0  0  0  0  0  0  0  0  0  0  0  0
    4.3346    1.6385    2.7989 H   0  0  0  0  0  0  0  0  0  0  0  0
    5.3058    3.5963    3.9143 H   0  0  0  0  0  0  0  0  0  0  0  0
    5.8704    2.5735    5.2904 H   0  0  0  0  0  0  0  0  0  0  0  0
    6.5651    2.3350    3.6337 H   0  0  0  0  0  0  0  0  0  0  0  0
  1 24  1  1  0  0  0
  2  1  1  0  0  0  0
  2  6  1  6  0  0  0
  3  2  1  0  0  0  0
  3  4  1  1  0  0  0
  5  4  1  6  0  0  0
  6  5  1  0  0  0  0
  7  3  1  0  0  0  0
  7 11  1  1  0  0  0
  8  1  1  0  0  0  0
  8  7  1  0  0  0  0
  8  9  1  1  0  0  0
 10  9  1  0  0  0  0
 11 10  1  0  0  0  0
 12  6  1  0  0  0  0
 13  9  1  0  0  0  0
 15 14  1  0  0  0  0
 16 15  1  0  0  0  0
 17 16  1  1  0  0  0
 18 17  1  0  0  0  0
 19 18  1  0  0  0  0
 20 19  1  0  0  0  0
 21 17  1  0  0  0  0
 21 20  1  1  0  0  0
 22  5  1  0  0  0  0
 22 14  1  6  0  0  0
 22 21  1  0  0  0  0
 23 15  1  0  0  0  0
 25 24  1  0  0  0  0
 25 41  1  6  0  0  0
 26 25  1  0  0  0  0
 27 26  1  0  0  0  0
 28 27  1  0  0  0  0
 29 28  1  0  0  0  0
 30 29  1  0  0  0  0
 31 30  1  0  0  0  0
 32 25  1  0  0  0  0
 33 32  1  0  0  0  0
 34 33  1  0  0  0  0
 35 34  1  0  0  0  0
 36 35  1  0  0  0  0
 37 36  1  0  0  0  0
 38 37  1  0  0  0  0
 39 38  1  0  0  0  0
 40 24  1  0  0  0  0
 42 26  1  0  0  0  0
 43 26  1  0  0  0  0
 44 27  1  0  0  0  0
 45 27  1  0  0  0  0
 46 28  1  0  0  0  0
 47 28  1  0  0  0  0
 48 29  1  0  0  0  0
 49 29  1  0  0  0  0
 50 30  1  0  0  0  0
 51 30  1  0  0  0  0
 52 31  1  0  0  0  0
 53 31  1  0  0  0  0
 54 31  1  0  0  0  0
 55 32  1  0  0  0  0
 56 32  1  0  0  0  0
 57 33  1  0  0  0  0
 58 33  1  0  0  0  0
 59 34  1  0  0  0  0
 60 34  1  0  0  0  0
 61 35  1  0  0  0  0
 62 35  1  0  0  0  0
 63 36  1  0  0  0  0
 64 36  1  0  0  0  0
 65 37  1  0  0  0  0
 66 37  1  0  0  0  0
 67 38  1  0  0  0  0
 68 38  1  0  0  0  0
 69 39  1  0  0  0  0
 70 39  1  0  0  0  0
 71 39  1  0  0  0  0
M  END
$$$$
