Compound
 OpenBabel01172312403D

148152  0  0  1  0  0  0  0  0999 V2000
   -9.7290    0.2170    1.0490 C   0  0  1  0  0  3  0  0  0  0  0  0
  -10.3020    1.3530    1.9010 C   0  0  2  0  0  3  0  0  0  0  0  0
  -10.0760    0.9420    3.3670 C   0  0  1  0  0  3  0  0  0  0  0  0
  -11.6690    0.4250    4.1050 S   0  0  0  0  0  0  0  0  0  0  0  0
  -12.5460    1.1860    2.7630 C   0  0  0  0  0  3  0  0  0  0  0  0
  -11.7580    1.5740    1.7140 C   0  0  0  0  0  3  0  0  0  0  0  0
   -9.1280   -0.2510    3.3540 C   0  0  2  0  0  3  0  0  0  0  0  0
   -9.3460   -0.9350    2.0130 C   0  0  1  0  0  3  0  0  0  0  0  0
   -8.0360   -1.6270    1.7270 C   0  0  0  0  0  3  0  0  0  0  0  0
   -6.9440   -1.3350    2.7170 C   0  0  1  0  0  3  0  0  0  0  0  0
   -7.3690    0.2600    3.4670 S   0  0  0  0  0  0  0  0  0  0  0  0
  -13.6230    1.2810    2.7500 H   0  0  0  0  0  0  0  0  0  0  0  0
  -12.1690    1.9860    0.8020 H   0  0  0  0  0  0  0  0  0  0  0  0
   -8.0710   -2.6360    1.3360 H   0  0  0  0  0  0  0  0  0  0  0  0
   -4.5110   -1.8020    3.4240 C   0  0  1  0  0  3  0  0  0  0  0  0
   -4.8960   -2.9370    4.2280 N   0  0  0  0  0  2  0  0  0  0  0  0
   -3.4080   -3.4280    5.0790 S   0  0  0  0  0  0  0  0  0  0  0  0
   -2.3370   -2.4700    4.0370 N   0  0  0  0  0  2  0  0  0  0  0  0
   -3.1460   -2.1410    2.8930 C   0  0  1  0  0  3  0  0  0  0  0  0
   -2.5860   -0.9870    2.0850 C   0  0  0  0  0  3  0  0  0  0  0  0
   -3.4770   -0.7370    0.9550 N   0  0  0  0  0  2  0  0  0  0  0  0
   -4.8200   -0.3940    1.4320 C   0  0  0  0  0  3  0  0  0  0  0  0
   -5.4610   -1.5420    2.2510 C   0  0  2  0  0  3  0  0  0  0  0  0
   -2.4690   -0.0610    2.6930 H   0  0  0  0  0  0  0  0  0  0  0  0
   -5.3850   -0.1740    0.5380 H   0  0  0  0  0  0  0  0  0  0  0  0
  -10.2420   -0.0290   -0.4400 C   0  0  1  0  0  3  0  0  0  0  0  0
   -9.1230   -0.7180   -1.2720 C   0  0  0  0  0  0  0  0  0  0  0  0
   -7.8430    0.1550   -1.6110 C   0  0  2  0  0  0  0  0  0  0  0  0
   -7.4820    1.0920   -0.4220 C   0  0  0  0  0  0  0  0  0  0  0  0
   -6.3460    2.1380   -0.4720 C   0  0  0  0  0  0  0  0  0  0  0  0
   -6.2640    2.7540    0.9550 C   0  0  0  0  0  0  0  0  0  0  0  0
   -5.2500    3.8730    1.2060 C   0  0  0  0  0  0  0  0  0  0  0  0
   -3.8180    3.4940    0.8210 C   0  0  0  0  0  0  0  0  0  0  0  0
   -2.8270    4.5290    1.3690 C   0  0  0  0  0  0  0  0  0  0  0  0
   -1.4190    4.2830    0.8200 C   0  0  0  0  0  0  0  0  0  0  0  0
   -0.4120    5.2520    1.4320 C   0  0  0  0  0  0  0  0  0  0  0  0
   -6.6680   -0.7780   -2.1090 C   0  0  0  0  0  0  0  0  0  0  0  0
   -6.4820   -2.0710   -1.2680 C   0  0  0  0  0  0  0  0  0  0  0  0
   -5.2230   -2.9150   -1.5080 C   0  0  0  0  0  0  0  0  0  0  0  0
   -5.1980   -4.0580   -0.4590 C   0  0  0  0  0  0  0  0  0  0  0  0
   -3.9560   -4.9590   -0.5610 C   0  0  0  0  0  0  0  0  0  0  0  0
   -3.8200   -5.9430    0.6250 C   0  0  0  0  0  0  0  0  0  0  0  0
   -4.9780   -6.9500    0.7580 C   0  0  0  0  0  0  0  0  0  0  0  0
   -4.8160   -7.9210    1.9500 C   0  0  0  0  0  0  0  0  0  0  0  0
   -3.6220   -8.8820    1.8010 C   0  0  0  0  0  0  0  0  0  0  0  0
   -3.5560   -9.8660    2.9650 C   0  0  0  0  0  0  0  0  0  0  0  0
  -11.6210   -0.7640   -0.3770 C   0  0  0  0  0  0  0  0  0  0  0  0
  -12.0110   -1.8620   -1.4140 C   0  0  2  0  0  0  0  0  0  0  0  0
  -12.1830   -1.3260   -2.8720 C   0  0  0  0  0  0  0  0  0  0  0  0
  -12.3480   -2.4840   -3.8880 C   0  0  0  0  0  0  0  0  0  0  0  0
  -12.4850   -1.9860   -5.3380 C   0  0  0  0  0  0  0  0  0  0  0  0
  -12.7120   -3.1420   -6.3410 C   0  0  0  0  0  0  0  0  0  0  0  0
  -11.5190   -4.1060   -6.4500 C   0  0  0  0  0  0  0  0  0  0  0  0
  -11.7810   -5.1980   -7.5010 C   0  0  0  0  0  0  0  0  0  0  0  0
  -10.6340   -6.2180   -7.6160 C   0  0  0  0  0  0  0  0  0  0  0  0
   -9.3200   -5.6000   -8.1120 C   0  0  0  0  0  0  0  0  0  0  0  0
  -13.3410   -2.5650   -0.9720 C   0  0  0  0  0  0  0  0  0  0  0  0
  -13.4320   -3.0410    0.4930 C   0  0  0  0  0  0  0  0  0  0  0  0
  -12.3040   -4.0080    0.8770 C   0  0  0  0  0  0  0  0  0  0  0  0
  -12.4030   -4.4900    2.3310 C   0  0  0  0  0  0  0  0  0  0  0  0
  -12.1920   -3.3570    3.3600 C   0  0  0  0  0  0  0  0  0  0  0  0
  -12.1290   -3.8740    4.8070 C   0  0  0  0  0  0  0  0  0  0  0  0
  -13.4630   -4.4700    5.2990 C   0  0  0  0  0  0  0  0  0  0  0  0
  -13.3580   -5.0890    6.7030 C   0  0  0  0  0  0  0  0  0  0  0  0
  -12.9640   -4.1230    7.8330 C   0  0  0  0  0  0  0  0  0  0  0  0
  -13.9850   -3.0080    8.0490 C   0  0  0  0  0  0  0  0  0  0  0  0
   -9.4730   -1.1110   -2.2390 H   0  0  0  0  0  0  0  0  0  0  0  0
   -8.8950   -1.6030   -0.6690 H   0  0  0  0  0  0  0  0  0  0  0  0
   -8.0880    0.8660   -2.4310 H   0  0  0  0  0  0  0  0  0  0  0  0
   -8.3670    1.7370   -0.2500 H   0  0  0  0  0  0  0  0  0  0  0  0
   -7.3260    0.4570    0.4520 H   0  0  0  0  0  0  0  0  0  0  0  0
   -6.5800    2.9190   -1.2280 H   0  0  0  0  0  0  0  0  0  0  0  0
   -5.3760    1.6710   -0.7310 H   0  0  0  0  0  0  0  0  0  0  0  0
   -7.2600    3.1520    1.2530 H   0  0  0  0  0  0  0  0  0  0  0  0
   -6.0120    1.9440    1.6660 H   0  0  0  0  0  0  0  0  0  0  0  0
   -5.2910    4.0870    2.3000 H   0  0  0  0  0  0  0  0  0  0  0  0
   -5.5460    4.7960    0.6650 H   0  0  0  0  0  0  0  0  0  0  0  0
   -3.7620    3.4480   -0.2870 H   0  0  0  0  0  0  0  0  0  0  0  0
   -3.5490    2.4990    1.2410 H   0  0  0  0  0  0  0  0  0  0  0  0
   -3.1440    5.5550    1.0810 H   0  0  0  0  0  0  0  0  0  0  0  0
   -2.8200    4.4590    2.4810 H   0  0  0  0  0  0  0  0  0  0  0  0
   -1.4370    4.4270   -0.2830 H   0  0  0  0  0  0  0  0  0  0  0  0
   -1.0940    3.2430    1.0410 H   0  0  0  0  0  0  0  0  0  0  0  0
   -0.7170    6.3040    1.2430 H   0  0  0  0  0  0  0  0  0  0  0  0
    0.5870    5.0830    0.9790 H   0  0  0  0  0  0  0  0  0  0  0  0
   -0.3400    5.0850    2.5280 H   0  0  0  0  0  0  0  0  0  0  0  0
   -5.7310   -0.1840   -2.1340 H   0  0  0  0  0  0  0  0  0  0  0  0
   -6.8760   -1.1120   -3.1490 H   0  0  0  0  0  0  0  0  0  0  0  0
   -7.3410   -2.7520   -1.4360 H   0  0  0  0  0  0  0  0  0  0  0  0
   -6.4690   -1.7850   -0.2210 H   0  0  0  0  0  0  0  0  0  0  0  0
   -4.3210   -2.2790   -1.3720 H   0  0  0  0  0  0  0  0  0  0  0  0
   -5.2270   -3.3250   -2.5410 H   0  0  0  0  0  0  0  0  0  0  0  0
   -6.1120   -4.6760   -0.5660 H   0  0  0  0  0  0  0  0  0  0  0  0
   -5.1980   -3.6020    0.5510 H   0  0  0  0  0  0  0  0  0  0  0  0
   -3.0550   -4.3110   -0.5470 H   0  0  0  0  0  0  0  0  0  0  0  0
   -3.9770   -5.5140   -1.5240 H   0  0  0  0  0  0  0  0  0  0  0  0
   -2.8690   -6.4940    0.4780 H   0  0  0  0  0  0  0  0  0  0  0  0
   -3.7370   -5.3610    1.5720 H   0  0  0  0  0  0  0  0  0  0  0  0
   -5.9210   -6.3900    0.9290 H   0  0  0  0  0  0  0  0  0  0  0  0
   -5.0840   -7.5360   -0.1800 H   0  0  0  0  0  0  0  0  0  0  0  0
   -4.7190   -7.3420    2.8940 H   0  0  0  0  0  0  0  0  0  0  0  0
   -5.7410   -8.5330    2.0140 H   0  0  0  0  0  0  0  0  0  0  0  0
   -2.6680   -8.3160    1.7740 H   0  0  0  0  0  0  0  0  0  0  0  0
   -3.7270   -9.4570    0.8550 H   0  0  0  0  0  0  0  0  0  0  0  0
   -4.4820  -10.4790    3.0130 H   0  0  0  0  0  0  0  0  0  0  0  0
   -3.4240   -9.3290    3.9270 H   0  0  0  0  0  0  0  0  0  0  0  0
   -2.6910  -10.5540    2.8240 H   0  0  0  0  0  0  0  0  0  0  0  0
  -11.5980   -1.2800    0.5950 H   0  0  0  0  0  0  0  0  0  0  0  0
  -12.4320   -0.0110   -0.3230 H   0  0  0  0  0  0  0  0  0  0  0  0
  -11.1910   -2.6120   -1.3980 H   0  0  0  0  0  0  0  0  0  0  0  0
  -11.3050   -0.7310   -3.1830 H   0  0  0  0  0  0  0  0  0  0  0  0
  -13.0580   -0.6430   -2.9210 H   0  0  0  0  0  0  0  0  0  0  0  0
  -13.2600   -3.0680   -3.6680 H   0  0  0  0  0  0  0  0  0  0  0  0
  -11.4590   -3.1400   -3.8030 H   0  0  0  0  0  0  0  0  0  0  0  0
  -13.3670   -1.3140   -5.3930 H   0  0  0  0  0  0  0  0  0  0  0  0
  -11.5830   -1.4100   -5.6340 H   0  0  0  0  0  0  0  0  0  0  0  0
  -12.8900   -2.6900   -7.3420 H   0  0  0  0  0  0  0  0  0  0  0  0
  -13.6280   -3.7070   -6.0530 H   0  0  0  0  0  0  0  0  0  0  0  0
  -11.3370   -4.6020   -5.4740 H   0  0  0  0  0  0  0  0  0  0  0  0
  -10.6230   -3.5170   -6.7330 H   0  0  0  0  0  0  0  0  0  0  0  0
  -12.6970   -5.7570   -7.2060 H   0  0  0  0  0  0  0  0  0  0  0  0
  -11.9630   -4.7350   -8.4940 H   0  0  0  0  0  0  0  0  0  0  0  0
  -10.9380   -7.0000   -8.3440 H   0  0  0  0  0  0  0  0  0  0  0  0
  -10.4610   -6.7070   -6.6340 H   0  0  0  0  0  0  0  0  0  0  0  0
   -8.9340   -4.8520   -7.3950 H   0  0  0  0  0  0  0  0  0  0  0  0
   -9.4760   -5.1210   -9.1030 H   0  0  0  0  0  0  0  0  0  0  0  0
   -8.5600   -6.3970   -8.2190 H   0  0  0  0  0  0  0  0  0  0  0  0
  -13.5140   -3.4610   -1.5990 H   0  0  0  0  0  0  0  0  0  0  0  0
  -14.1900   -1.8640   -1.1290 H   0  0  0  0  0  0  0  0  0  0  0  0
  -13.4480   -2.1560    1.1600 H   0  0  0  0  0  0  0  0  0  0  0  0
  -14.4120   -3.5480    0.6330 H   0  0  0  0  0  0  0  0  0  0  0  0
  -11.3070   -3.5430    0.7340 H   0  0  0  0  0  0  0  0  0  0  0  0
  -12.3640   -4.8960    0.2080 H   0  0  0  0  0  0  0  0  0  0  0  0
  -11.6040   -5.2470    2.4830 H   0  0  0  0  0  0  0  0  0  0  0  0
  -13.3860   -4.9830    2.4750 H   0  0  0  0  0  0  0  0  0  0  0  0
  -11.2170   -2.8690    3.1400 H   0  0  0  0  0  0  0  0  0  0  0  0
  -12.9890   -2.5890    3.2870 H   0  0  0  0  0  0  0  0  0  0  0  0
  -11.3220   -4.6350    4.8810 H   0  0  0  0  0  0  0  0  0  0  0  0
  -11.8600   -3.0160    5.4580 H   0  0  0  0  0  0  0  0  0  0  0  0
  -14.2560   -3.6910    5.2680 H   0  0  0  0  0  0  0  0  0  0  0  0
  -13.7710   -5.2920    4.6230 H   0  0  0  0  0  0  0  0  0  0  0  0
  -12.6040   -5.9070    6.6670 H   0  0  0  0  0  0  0  0  0  0  0  0
  -14.3380   -5.5500    6.9560 H   0  0  0  0  0  0  0  0  0  0  0  0
  -11.9640   -3.6830    7.6400 H   0  0  0  0  0  0  0  0  0  0  0  0
  -12.8930   -4.7110    8.7740 H   0  0  0  0  0  0  0  0  0  0  0  0
  -14.9830   -3.4410    8.2750 H   0  0  0  0  0  0  0  0  0  0  0  0
  -13.6670   -2.3830    8.9100 H   0  0  0  0  0  0  0  0  0  0  0  0
  -14.0570   -2.3560    7.1560 H   0  0  0  0  0  0  0  0  0  0  0  0
  1 26  1  6  0  0  0
  2  1  1  0  0  0  0
  2  6  1  1  0  0  0
  3  2  1  0  0  0  0
  3  4  1  6  0  0  0
  5  4  1  0  0  0  0
  6  5  1  0  0  0  0
  7  3  1  0  0  0  0
  7 11  1  1  0  0  0
  8  1  1  0  0  0  0
  8  7  1  0  0  0  0
  8  9  1  1  0  0  0
 10  9  1  1  0  0  0
 11 10  1  0  0  0  0
 12  5  1  0  0  0  0
 13  6  1  0  0  0  0
 14  9  1  0  0  0  0
 15 16  1  6  0  0  0
 17 16  1  0  0  0  0
 18 17  1  0  0  0  0
 19 15  1  0  0  0  0
 19 18  1  6  0  0  0
 20 19  1  0  0  0  0
 21 20  1  0  0  0  0
 22 21  1  0  0  0  0
 23 10  1  0  0  0  0
 23 15  1  0  0  0  0
 23 22  1  1  0  0  0
 24 20  1  0  0  0  0
 25 22  1  0  0  0  0
 26 27  1  6  0  0  0
 28 27  1  0  0  0  0
 28 69  1  1  0  0  0
 29 28  1  0  0  0  0
 30 29  1  0  0  0  0
 31 30  1  0  0  0  0
 32 31  1  0  0  0  0
 33 32  1  0  0  0  0
 34 33  1  0  0  0  0
 35 34  1  0  0  0  0
 36 35  1  0  0  0  0
 37 28  1  0  0  0  0
 38 37  1  0  0  0  0
 39 38  1  0  0  0  0
 40 39  1  0  0  0  0
 41 40  1  0  0  0  0
 42 41  1  0  0  0  0
 43 42  1  0  0  0  0
 44 43  1  0  0  0  0
 45 44  1  0  0  0  0
 46 45  1  0  0  0  0
 47 26  1  0  0  0  0
 48 47  1  0  0  0  0
 48110  1  6  0  0  0
 49 48  1  0  0  0  0
 50 49  1  0  0  0  0
 51 50  1  0  0  0  0
 52 51  1  0  0  0  0
 53 52  1  0  0  0  0
 54 53  1  0  0  0  0
 55 54  1  0  0  0  0
 56 55  1  0  0  0  0
 57 48  1  0  0  0  0
 58 57  1  0  0  0  0
 59 58  1  0  0  0  0
 60 59  1  0  0  0  0
 61 60  1  0  0  0  0
 62 61  1  0  0  0  0
 63 62  1  0  0  0  0
 64 63  1  0  0  0  0
 65 64  1  0  0  0  0
 66 65  1  0  0  0  0
 67 27  1  0  0  0  0
 68 27  1  0  0  0  0
 70 29  1  0  0  0  0
 71 29  1  0  0  0  0
 72 30  1  0  0  0  0
 73 30  1  0  0  0  0
 74 31  1  0  0  0  0
 75 31  1  0  0  0  0
 76 32  1  0  0  0  0
 77 32  1  0  0  0  0
 78 33  1  0  0  0  0
 79 33  1  0  0  0  0
 80 34  1  0  0  0  0
 81 34  1  0  0  0  0
 82 35  1  0  0  0  0
 83 35  1  0  0  0  0
 84 36  1  0  0  0  0
 85 36  1  0  0  0  0
 86 36  1  0  0  0  0
 87 37  1  0  0  0  0
 88 37  1  0  0  0  0
 89 38  1  0  0  0  0
 90 38  1  0  0  0  0
 91 39  1  0  0  0  0
 92 39  1  0  0  0  0
 93 40  1  0  0  0  0
 94 40  1  0  0  0  0
 95 41  1  0  0  0  0
 96 41  1  0  0  0  0
 97 42  1  0  0  0  0
 98 42  1  0  0  0  0
 99 43  1  0  0  0  0
100 43  1  0  0  0  0
101 44  1  0  0  0  0
102 44  1  0  0  0  0
103 45  1  0  0  0  0
104 45  1  0  0  0  0
105 46  1  0  0  0  0
106 46  1  0  0  0  0
107 46  1  0  0  0  0
108 47  1  0  0  0  0
109 47  1  0  0  0  0
111 49  1  0  0  0  0
112 49  1  0  0  0  0
113 50  1  0  0  0  0
114 50  1  0  0  0  0
115 51  1  0  0  0  0
116 51  1  0  0  0  0
117 52  1  0  0  0  0
118 52  1  0  0  0  0
119 53  1  0  0  0  0
120 53  1  0  0  0  0
121 54  1  0  0  0  0
122 54  1  0  0  0  0
123 55  1  0  0  0  0
124 55  1  0  0  0  0
125 56  1  0  0  0  0
126 56  1  0  0  0  0
127 56  1  0  0  0  0
128 57  1  0  0  0  0
129 57  1  0  0  0  0
130 58  1  0  0  0  0
131 58  1  0  0  0  0
132 59  1  0  0  0  0
133 59  1  0  0  0  0
134 60  1  0  0  0  0
135 60  1  0  0  0  0
136 61  1  0  0  0  0
137 61  1  0  0  0  0
138 62  1  0  0  0  0
139 62  1  0  0  0  0
140 63  1  0  0  0  0
141 63  1  0  0  0  0
142 64  1  0  0  0  0
143 64  1  0  0  0  0
144 65  1  0  0  0  0
145 65  1  0  0  0  0
146 66  1  0  0  0  0
147 66  1  0  0  0  0
148 66  1  0  0  0  0
M  END
$$$$
