Compound
 OpenBabel02232314003D

147151  0  0  1  0  0  0  0  0999 V2000
   -1.3001   -0.4237   -0.0955 C   0  0  2  0  0  0  0  0  0  0  0  0
   -1.9996   -1.5072    0.7968 C   0  0  2  0  0  3  0  0  0  0  0  0
   -1.2198   -2.6122    0.9686 C   0  0  1  0  0  3  0  0  0  0  0  0
   -1.9464   -3.8502    1.8248 S   0  0  0  0  0  0  0  0  0  0  0  0
   -3.3860   -2.9741    1.9753 C   0  0  0  0  0  3  0  0  0  0  0  0
   -3.2606   -1.7173    1.3899 C   0  0  0  0  0  3  0  0  0  0  0  0
    0.0344   -2.4135    0.3751 C   0  0  2  0  0  3  0  0  0  0  0  0
    0.0519   -1.2222   -0.2815 C   0  0  2  0  0  3  0  0  0  0  0  0
    1.3595   -0.9532   -0.7409 C   0  0  0  0  0  3  0  0  0  0  0  0
    2.2954   -1.9056   -0.2968 C   0  0  1  0  0  3  0  0  0  0  0  0
    1.5125   -3.1948    0.4730 S   0  0  0  0  0  0  0  0  0  0  0  0
   -4.2920   -3.3298    2.4447 H   0  0  0  0  0  0  0  0  0  0  0  0
   -4.1070   -1.0709    1.4002 H   0  0  0  0  0  0  0  0  0  0  0  0
    1.6746   -0.0492   -1.2083 H   0  0  0  0  0  0  0  0  0  0  0  0
    4.1997   -0.5006    0.5881 C   0  0  2  0  0  3  0  0  0  0  0  0
    3.3859    0.4707    1.0600 N   0  0  0  0  0  2  0  0  0  0  0  0
    4.4266    1.5057    1.8159 S   0  0  0  0  0  0  0  0  0  0  0  0
    5.8982    0.7974    1.5947 N   0  0  0  0  0  2  0  0  0  0  0  0
    5.5781   -0.3207    0.8961 C   0  0  2  0  0  3  0  0  0  0  0  0
    6.4950   -1.2799    0.5147 C   0  0  0  0  0  3  0  0  0  0  0  0
    6.0549   -2.4001   -0.1222 N   0  0  0  0  0  2  0  0  0  0  0  0
    4.7313   -2.6143   -0.4151 C   0  0  0  0  0  3  0  0  0  0  0  0
    3.7526   -1.6555   -0.1003 C   0  0  1  0  0  3  0  0  0  0  0  0
    7.5465   -1.1565    0.7509 H   0  0  0  0  0  0  0  0  0  0  0  0
    4.4486   -3.5391   -0.8978 H   0  0  0  0  0  0  0  0  0  0  0  0
   -0.9421    1.0867    0.3567 C   0  0  0  0  0  0  0  0  0  0  0  0
    0.4228    1.5701    0.9038 C   0  0  1  0  0  0  0  0  0  0  0  0
    0.8124    3.0310    0.4665 C   0  0  0  0  0  0  0  0  0  0  0  0
    0.7592    3.4494   -1.0518 C   0  0  0  0  0  0  0  0  0  0  0  0
    1.2682    2.4280   -2.0966 C   0  0  0  0  0  0  0  0  0  0  0  0
    1.6166    3.0016   -3.4944 C   0  0  0  0  0  0  0  0  0  0  0  0
    0.6610    4.0173   -4.1479 C   0  0  0  0  0  0  0  0  0  0  0  0
   -0.7414    3.5185   -4.5138 C   0  0  0  0  0  0  0  0  0  0  0  0
   -1.6043    4.6546   -5.1213 C   0  0  0  0  0  0  0  0  0  0  0  0
   -1.1174    5.1357   -6.5099 C   0  0  0  0  0  0  0  0  0  0  0  0
   -1.9173    6.3289   -7.0669 C   0  0  0  0  0  0  0  0  0  0  0  0
   -1.6883    7.6199   -6.2744 C   0  0  0  0  0  0  0  0  0  0  0  0
    0.5440    1.4142    2.4318 C   0  0  0  0  0  0  0  0  0  0  0  0
    0.1934    0.0012    2.9207 C   0  0  0  0  0  0  0  0  0  0  0  0
    0.3756   -0.1372    4.4258 C   0  0  0  0  0  0  0  0  0  0  0  0
    0.0064   -1.5343    4.9605 C   0  0  0  0  0  0  0  0  0  0  0  0
   -1.5037   -1.8427    4.8970 C   0  0  0  0  0  0  0  0  0  0  0  0
   -1.8126   -3.1793    5.6019 C   0  0  0  0  0  0  0  0  0  0  0  0
   -3.2787   -3.6399    5.5030 C   0  0  0  0  0  0  0  0  0  0  0  0
   -4.2926   -2.6531    6.0784 C   0  0  0  0  0  0  0  0  0  0  0  0
   -0.9561    1.6242   -0.5974 H   0  0  0  0  0  0  0  0  0  0  0  0
   -1.6758    1.5821    0.9628 H   0  0  0  0  0  0  0  0  0  0  0  0
    1.1973    1.0085    0.4670 H   0  0  0  0  0  0  0  0  0  0  0  0
    1.8700    3.1619    0.7873 H   0  0  0  0  0  0  0  0  0  0  0  0
    0.2070    3.7747    1.0251 H   0  0  0  0  0  0  0  0  0  0  0  0
    1.3569    4.3823   -1.1343 H   0  0  0  0  0  0  0  0  0  0  0  0
   -0.2845    3.7063   -1.3379 H   0  0  0  0  0  0  0  0  0  0  0  0
    0.5057    1.6329   -2.2218 H   0  0  0  0  0  0  0  0  0  0  0  0
    2.2139    1.9739   -1.7327 H   0  0  0  0  0  0  0  0  0  0  0  0
    1.8000    2.1518   -4.1924 H   0  0  0  0  0  0  0  0  0  0  0  0
    2.5801    3.5430   -3.3850 H   0  0  0  0  0  0  0  0  0  0  0  0
    0.5716    4.8970   -3.4780 H   0  0  0  0  0  0  0  0  0  0  0  0
    1.1680    4.3461   -5.0780 H   0  0  0  0  0  0  0  0  0  0  0  0
   -1.2414    3.1658   -3.5876 H   0  0  0  0  0  0  0  0  0  0  0  0
   -0.6762    2.6708   -5.2273 H   0  0  0  0  0  0  0  0  0  0  0  0
   -2.6503    4.2940   -5.2383 H   0  0  0  0  0  0  0  0  0  0  0  0
   -1.6138    5.4943   -4.3962 H   0  0  0  0  0  0  0  0  0  0  0  0
   -0.0535    5.4418   -6.4891 H   0  0  0  0  0  0  0  0  0  0  0  0
   -1.2170    4.2847   -7.2191 H   0  0  0  0  0  0  0  0  0  0  0  0
   -3.0015    6.0892   -7.1023 H   0  0  0  0  0  0  0  0  0  0  0  0
   -1.5717    6.5182   -8.1071 H   0  0  0  0  0  0  0  0  0  0  0  0
   -2.0564    7.5301   -5.2333 H   0  0  0  0  0  0  0  0  0  0  0  0
   -0.6060    7.8734   -6.2584 H   0  0  0  0  0  0  0  0  0  0  0  0
   -2.2335    8.4572   -6.7592 H   0  0  0  0  0  0  0  0  0  0  0  0
   -0.1334    2.1389    2.9059 H   0  0  0  0  0  0  0  0  0  0  0  0
    1.5790    1.6731    2.7441 H   0  0  0  0  0  0  0  0  0  0  0  0
   -0.8661   -0.1935    2.6837 H   0  0  0  0  0  0  0  0  0  0  0  0
    0.8472   -0.7376    2.4169 H   0  0  0  0  0  0  0  0  0  0  0  0
   -0.2409    0.6173    4.9412 H   0  0  0  0  0  0  0  0  0  0  0  0
    1.4429    0.0570    4.6641 H   0  0  0  0  0  0  0  0  0  0  0  0
    0.5816   -2.3116    4.4138 H   0  0  0  0  0  0  0  0  0  0  0  0
    0.3240   -1.5725    6.0202 H   0  0  0  0  0  0  0  0  0  0  0  0
   -2.0633   -1.0369    5.4027 H   0  0  0  0  0  0  0  0  0  0  0  0
   -1.8281   -1.8818    3.8473 H   0  0  0  0  0  0  0  0  0  0  0  0
   -1.1880   -3.9763    5.1434 H   0  0  0  0  0  0  0  0  0  0  0  0
   -1.5359   -3.0909    6.6740 H   0  0  0  0  0  0  0  0  0  0  0  0
   -3.3757   -4.6025    6.0496 H   0  0  0  0  0  0  0  0  0  0  0  0
   -3.5347   -3.8416    4.4520 H   0  0  0  0  0  0  0  0  0  0  0  0
   -4.2832   -1.6975    5.5144 H   0  0  0  0  0  0  0  0  0  0  0  0
   -5.3122   -3.0873    5.9905 H   0  0  0  0  0  0  0  0  0  0  0  0
   -4.0802   -2.4598    7.1498 H   0  0  0  0  0  0  0  0  0  0  0  0
   -2.2694   -0.2637   -1.3274 C   0  0  0  0  0  0  0  0  0  0  0  0
   -3.7088    0.4030   -1.0633 C   0  0  1  0  0  0  0  0  0  0  0  0
   -3.8298    1.7539   -0.2019 C   0  0  0  0  0  0  0  0  0  0  0  0
   -4.1000    1.5254    1.3532 C   0  0  0  0  0  0  0  0  0  0  0  0
   -4.2653    2.7849    2.2627 C   0  0  0  0  0  0  0  0  0  0  0  0
   -2.9759    3.3327    2.9543 C   0  0  0  0  0  0  0  0  0  0  0  0
   -2.4507    2.5133    4.1875 C   0  0  0  0  0  0  0  0  0  0  0  0
   -3.3055    2.6839    5.4686 C   0  0  0  0  0  0  0  0  0  0  0  0
   -2.9229    1.7871    6.6795 C   0  0  0  0  0  0  0  0  0  0  0  0
   -1.5451    2.0254    7.3426 C   0  0  0  0  0  0  0  0  0  0  0  0
   -1.3600    1.1950    8.6405 C   0  0  0  0  0  0  0  0  0  0  0  0
   -1.3993   -0.3224    8.4406 C   0  0  0  0  0  0  0  0  0  0  0  0
   -4.5687    0.4785   -2.3681 C   0  0  0  0  0  0  0  0  0  0  0  0
   -3.9612    1.0304   -3.6772 C   0  0  0  0  0  0  0  0  0  0  0  0
   -3.3346   -0.0947   -4.5442 C   0  0  0  0  0  0  0  0  0  0  0  0
   -2.8993    0.3322   -5.9606 C   0  0  0  0  0  0  0  0  0  0  0  0
   -4.0356    0.9494   -6.7961 C   0  0  0  0  0  0  0  0  0  0  0  0
   -3.5830    1.2413   -8.2352 C   0  0  0  0  0  0  0  0  0  0  0  0
   -4.6304    2.0282   -9.0438 C   0  0  0  0  0  0  0  0  0  0  0  0
   -5.9496    1.2813   -9.2424 C   0  0  0  0  0  0  0  0  0  0  0  0
   -1.7373    0.3347   -2.0946 H   0  0  0  0  0  0  0  0  0  0  0  0
   -2.4389   -1.2652   -1.7816 H   0  0  0  0  0  0  0  0  0  0  0  0
   -4.3300   -0.3014   -0.4970 H   0  0  0  0  0  0  0  0  0  0  0  0
   -4.7495    2.2960   -0.5055 H   0  0  0  0  0  0  0  0  0  0  0  0
   -3.0299    2.4753   -0.4578 H   0  0  0  0  0  0  0  0  0  0  0  0
   -3.3856    0.8624    1.8660 H   0  0  0  0  0  0  0  0  0  0  0  0
   -5.0812    1.0031    1.3789 H   0  0  0  0  0  0  0  0  0  0  0  0
   -4.9714    2.5400    3.0820 H   0  0  0  0  0  0  0  0  0  0  0  0
   -4.7518    3.5750    1.6545 H   0  0  0  0  0  0  0  0  0  0  0  0
   -3.1782    4.3600    3.3263 H   0  0  0  0  0  0  0  0  0  0  0  0
   -2.1867    3.4273    2.1797 H   0  0  0  0  0  0  0  0  0  0  0  0
   -2.3594    1.4442    3.9099 H   0  0  0  0  0  0  0  0  0  0  0  0
   -1.4470    2.9008    4.4650 H   0  0  0  0  0  0  0  0  0  0  0  0
   -4.3533    2.4256    5.2262 H   0  0  0  0  0  0  0  0  0  0  0  0
   -3.2791    3.7499    5.7865 H   0  0  0  0  0  0  0  0  0  0  0  0
   -3.6877    1.9745    7.4640 H   0  0  0  0  0  0  0  0  0  0  0  0
   -3.0148    0.7322    6.3671 H   0  0  0  0  0  0  0  0  0  0  0  0
   -0.7171    1.8055    6.6474 H   0  0  0  0  0  0  0  0  0  0  0  0
   -1.4624    3.0962    7.6271 H   0  0  0  0  0  0  0  0  0  0  0  0
   -2.1495    1.4720    9.3710 H   0  0  0  0  0  0  0  0  0  0  0  0
   -0.3749    1.4480    9.0905 H   0  0  0  0  0  0  0  0  0  0  0  0
   -2.3723   -0.6574    8.0286 H   0  0  0  0  0  0  0  0  0  0  0  0
   -0.5810   -0.6363    7.7714 H   0  0  0  0  0  0  0  0  0  0  0  0
   -1.2560   -0.8336    9.4171 H   0  0  0  0  0  0  0  0  0  0  0  0
   -5.4749    1.0773   -2.1302 H   0  0  0  0  0  0  0  0  0  0  0  0
   -4.9806   -0.5287   -2.6006 H   0  0  0  0  0  0  0  0  0  0  0  0
   -4.8293    1.3995   -4.2567 H   0  0  0  0  0  0  0  0  0  0  0  0
   -3.2868    1.8918   -3.4928 H   0  0  0  0  0  0  0  0  0  0  0  0
   -4.0928   -0.8990   -4.6738 H   0  0  0  0  0  0  0  0  0  0  0  0
   -2.4579   -0.5433   -4.0409 H   0  0  0  0  0  0  0  0  0  0  0  0
   -2.0619    1.0508   -5.8954 H   0  0  0  0  0  0  0  0  0  0  0  0
   -2.5284   -0.5799   -6.4800 H   0  0  0  0  0  0  0  0  0  0  0  0
   -4.8993    0.2511   -6.8134 H   0  0  0  0  0  0  0  0  0  0  0  0
   -4.3442    1.9090   -6.3328 H   0  0  0  0  0  0  0  0  0  0  0  0
   -2.6628    1.8644   -8.1989 H   0  0  0  0  0  0  0  0  0  0  0  0
   -3.3378    0.2886   -8.7552 H   0  0  0  0  0  0  0  0  0  0  0  0
   -4.2034    2.2468  -10.0466 H   0  0  0  0  0  0  0  0  0  0  0  0
   -4.8339    2.9973   -8.5382 H   0  0  0  0  0  0  0  0  0  0  0  0
   -6.4498    1.0849   -8.2722 H   0  0  0  0  0  0  0  0  0  0  0  0
   -6.6340    1.9062   -9.8551 H   0  0  0  0  0  0  0  0  0  0  0  0
   -5.7752    0.3213   -9.7720 H   0  0  0  0  0  0  0  0  0  0  0  0
  1 26  1  6  0  0  0
  2  1  1  0  0  0  0
  2  6  1  6  0  0  0
  3  2  1  0  0  0  0
  3  4  1  6  0  0  0
  5  4  1  0  0  0  0
  6  5  1  0  0  0  0
  7  3  1  0  0  0  0
  7 11  1  6  0  0  0
  8  1  1  0  0  0  0
  8  7  1  0  0  0  0
  8  9  1  1  0  0  0
 10  9  1  6  0  0  0
 11 10  1  0  0  0  0
 12  5  1  0  0  0  0
 13  6  1  0  0  0  0
 14  9  1  0  0  0  0
 15 16  1  6  0  0  0
 17 16  1  0  0  0  0
 18 17  1  0  0  0  0
 19 15  1  0  0  0  0
 19 18  1  6  0  0  0
 20 19  1  0  0  0  0
 21 20  1  0  0  0  0
 22 21  1  0  0  0  0
 23 10  1  0  0  0  0
 23 15  1  0  0  0  0
 23 22  1  1  0  0  0
 24 20  1  0  0  0  0
 25 22  1  0  0  0  0
 27 26  1  0  0  0  0
 27 48  1  1  0  0  0
 28 27  1  0  0  0  0
 29 28  1  0  0  0  0
 30 29  1  0  0  0  0
 31 30  1  0  0  0  0
 32 31  1  0  0  0  0
 33 32  1  0  0  0  0
 34 33  1  0  0  0  0
 35 34  1  0  0  0  0
 36 35  1  0  0  0  0
 37 36  1  0  0  0  0
 38 27  1  0  0  0  0
 39 38  1  0  0  0  0
 40 39  1  0  0  0  0
 41 40  1  0  0  0  0
 42 41  1  0  0  0  0
 43 42  1  0  0  0  0
 44 43  1  0  0  0  0
 45 44  1  0  0  0  0
 46 26  1  0  0  0  0
 47 26  1  0  0  0  0
 49 28  1  0  0  0  0
 50 28  1  0  0  0  0
 51 29  1  0  0  0  0
 52 29  1  0  0  0  0
 53 30  1  0  0  0  0
 54 30  1  0  0  0  0
 55 31  1  0  0  0  0
 56 31  1  0  0  0  0
 57 32  1  0  0  0  0
 58 32  1  0  0  0  0
 59 33  1  0  0  0  0
 60 33  1  0  0  0  0
 61 34  1  0  0  0  0
 62 34  1  0  0  0  0
 63 35  1  0  0  0  0
 64 35  1  0  0  0  0
 65 36  1  0  0  0  0
 66 36  1  0  0  0  0
 67 37  1  0  0  0  0
 68 37  1  0  0  0  0
 69 37  1  0  0  0  0
 70 38  1  0  0  0  0
 71 38  1  0  0  0  0
 72 39  1  0  0  0  0
 73 39  1  0  0  0  0
 74 40  1  0  0  0  0
 75 40  1  0  0  0  0
 76 41  1  0  0  0  0
 77 41  1  0  0  0  0
 78 42  1  0  0  0  0
 79 42  1  0  0  0  0
 80 43  1  0  0  0  0
 81 43  1  0  0  0  0
 82 44  1  0  0  0  0
 83 44  1  0  0  0  0
 84 45  1  0  0  0  0
 85 45  1  0  0  0  0
 86 45  1  0  0  0  0
 87  1  1  0  0  0  0
 88 87  1  0  0  0  0
 88109  1  1  0  0  0
 89 88  1  0  0  0  0
 90 89  1  0  0  0  0
 91 90  1  0  0  0  0
 92 91  1  0  0  0  0
 93 92  1  0  0  0  0
 94 93  1  0  0  0  0
 95 94  1  0  0  0  0
 96 95  1  0  0  0  0
 97 96  1  0  0  0  0
 98 97  1  0  0  0  0
 99 88  1  0  0  0  0
100 99  1  0  0  0  0
101100  1  0  0  0  0
102101  1  0  0  0  0
103102  1  0  0  0  0
104103  1  0  0  0  0
105104  1  0  0  0  0
106105  1  0  0  0  0
107 87  1  0  0  0  0
108 87  1  0  0  0  0
110 89  1  0  0  0  0
111 89  1  0  0  0  0
112 90  1  0  0  0  0
113 90  1  0  0  0  0
114 91  1  0  0  0  0
115 91  1  0  0  0  0
116 92  1  0  0  0  0
117 92  1  0  0  0  0
118 93  1  0  0  0  0
119 93  1  0  0  0  0
120 94  1  0  0  0  0
121 94  1  0  0  0  0
122 95  1  0  0  0  0
123 95  1  0  0  0  0
124 96  1  0  0  0  0
125 96  1  0  0  0  0
126 97  1  0  0  0  0
127 97  1  0  0  0  0
128 98  1  0  0  0  0
129 98  1  0  0  0  0
130 98  1  0  0  0  0
131 99  1  0  0  0  0
132 99  1  0  0  0  0
133100  1  0  0  0  0
134100  1  0  0  0  0
135101  1  0  0  0  0
136101  1  0  0  0  0
137102  1  0  0  0  0
138102  1  0  0  0  0
139103  1  0  0  0  0
140103  1  0  0  0  0
141104  1  0  0  0  0
142104  1  0  0  0  0
143105  1  0  0  0  0
144105  1  0  0  0  0
145106  1  0  0  0  0
146106  1  0  0  0  0
147106  1  0  0  0  0
M  END
$$$$
