Compound
 OpenBabel01202311363D

 12 13  0  0  1  0  0  0  0  0999 V2000
   -0.7692   -1.2702    0.2489 C   0  0  0  0  0  3  0  0  0  0  0  0
    0.5757   -0.7555   -0.1657 C   0  0  2  0  0  3  0  0  0  0  0  0
    1.5982   -1.5707   -0.5264 N   0  0  0  0  0  2  0  0  0  0  0  0
    2.8006   -0.4534   -0.7311 S   0  0  0  0  0  0  0  0  0  0  0  0
    2.1289    1.0155   -0.3749 N   0  0  0  0  0  2  0  0  0  0  0  0
    0.8640    0.6265   -0.0787 C   0  0  1  0  0  3  0  0  0  0  0  0
   -0.1856    1.5575    0.3468 C   0  0  0  0  0  3  0  0  0  0  0  0
   -1.4142    1.1400    0.4494 N   0  0  0  0  0  2  0  0  0  0  0  0
   -1.8435   -0.1967    0.0107 C   0  0  0  0  0  3  0  0  0  0  0  0
   -1.0265   -2.1882   -0.3203 H   0  0  0  0  0  0  0  0  0  0  0  0
    0.0659    2.5705    0.6314 H   0  0  0  0  0  0  0  0  0  0  0  0
   -2.7943   -0.4754    0.5100 H   0  0  0  0  0  0  0  0  0  0  0  0
  2  1  1  1  0  0  0
  3  2  1  0  0  0  0
  4  3  1  0  0  0  0
  5  4  1  0  0  0  0
  6  2  1  0  0  0  0
  6  5  1  6  0  0  0
  7  6  1  0  0  0  0
  8  7  1  0  0  0  0
  9  1  1  0  0  0  0
  9  8  1  0  0  0  0
 10  1  1  0  0  0  0
 11  7  1  0  0  0  0
 12  9  1  0  0  0  0
M  END
$$$$
