Compound
 OpenBabel01202310293D

123127  0  0  1  0  0  0  0  0999 V2000
    5.8590   13.4920    1.6260 C   0  0  0  0  0  0  0  0  0  0  0  0
    4.7430   14.6160    1.7720 C   0  0  2  0  0  3  0  0  0  0  0  0
    3.5570   13.9340    2.4680 C   0  0  1  0  0  3  0  0  0  0  0  0
    1.9920   14.7350    2.0240 S   0  0  0  0  0  0  0  0  0  0  0  0
    2.7270   15.0290    0.4510 C   0  0  0  0  0  3  0  0  0  0  0  0
    4.1180   15.0640    0.4550 C   0  0  0  0  0  3  0  0  0  0  0  0
    3.6580   12.5020    1.9850 C   0  0  2  0  0  3  0  0  0  0  0  0
    4.8260   12.3840    1.0410 C   0  0  2  0  0  3  0  0  0  0  0  0
    4.6710   10.9480    0.5490 C   0  0  0  0  0  3  0  0  0  0  0  0
    3.4440   10.1710    1.1010 C   0  0  1  0  0  3  0  0  0  0  0  0
    2.2480   11.4790    1.5630 S   0  0  0  0  0  0  0  0  0  0  0  0
    2.1320   15.0240   -0.4620 H   0  0  0  0  0  0  0  0  0  0  0  0
    4.6370   15.0700   -0.4790 H   0  0  0  0  0  0  0  0  0  0  0  0
    4.9450   10.7550   -0.4840 H   0  0  0  0  0  0  0  0  0  0  0  0
    1.2840    8.7940    0.6740 C   0  0  0  0  0  3  0  0  0  0  0  0
    2.7080    9.1560    0.1510 C   0  0  2  0  0  3  0  0  0  0  0  0
    3.4380    7.8270   -0.1770 C   0  0  1  0  0  3  0  0  0  0  0  0
    2.8520    7.2190   -1.3630 N   0  0  0  0  0  2  0  0  0  0  0  0
    3.1160    5.4630   -1.2710 S   0  0  0  0  0  0  0  0  0  0  0  0
    3.7720    5.5330    0.3790 N   0  0  0  0  0  2  0  0  0  0  0  0
    3.3310    6.7870    0.9440 C   0  0  2  0  0  3  0  0  0  0  0  0
    1.8850    6.6340    1.4250 C   0  0  0  0  0  3  0  0  0  0  0  0
    1.3580    7.9280    1.8520 N   0  0  0  0  0  2  0  0  0  0  0  0
    0.6610    8.3210   -0.1120 H   0  0  0  0  0  0  0  0  0  0  0  0
    1.8020    5.8890    2.2500 H   0  0  0  0  0  0  0  0  0  0  0  0
    6.4390   13.0670    3.1010 C   0  0  0  0  0  0  0  0  0  0  0  0
    5.5940   12.1480    4.1330 C   0  0  0  0  0  0  0  0  0  0  0  0
    5.7180   12.2980    5.7100 C   0  0  0  0  0  0  0  0  0  0  0  0
    6.8000   11.7940    6.7350 C   0  0  0  0  0  0  0  0  0  0  0  0
    6.5470   10.5100    7.6340 C   0  0  0  0  0  0  0  0  0  0  0  0
    7.3060    9.1670    7.4390 C   0  0  0  0  0  0  0  0  0  0  0  0
    8.8170    9.3910    7.1970 C   0  0  0  0  0  0  0  0  0  0  0  0
    8.9610    9.5660    5.7030 C   0  0  0  0  0  0  0  0  0  0  0  0
   10.2040   10.2050    5.1320 C   0  0  0  0  0  0  0  0  0  0  0  0
    9.9440   10.6680    3.6800 C   0  0  0  0  0  0  0  0  0  0  0  0
    9.4500    9.6130    2.6340 C   0  0  0  0  0  0  0  0  0  0  0  0
    7.9860    9.1060    2.7750 C   0  0  0  0  0  0  0  0  0  0  0  0
    7.5880    8.0090    1.7700 C   0  0  0  0  0  0  0  0  0  0  0  0
    6.8580    8.5170    0.5330 C   0  0  0  0  0  0  0  0  0  0  0  0
    7.6050    9.5290   -0.3380 C   0  0  0  0  0  0  0  0  0  0  0  0
    8.8470    8.9130   -0.9680 C   0  0  0  0  0  0  0  0  0  0  0  0
    6.7250   14.0020    3.5960 H   0  0  0  0  0  0  0  0  0  0  0  0
    7.3930   12.4910    2.9360 H   0  0  0  0  0  0  0  0  0  0  0  0
    4.5930   12.5570    4.1190 H   0  0  0  0  0  0  0  0  0  0  0  0
    5.5320   11.0910    3.8220 H   0  0  0  0  0  0  0  0  0  0  0  0
    5.6740   13.4010    5.8470 H   0  0  0  0  0  0  0  0  0  0  0  0
    4.7640   11.9060    6.1450 H   0  0  0  0  0  0  0  0  0  0  0  0
    7.8500   12.0210    6.4630 H   0  0  0  0  0  0  0  0  0  0  0  0
    6.6230   12.5580    7.5260 H   0  0  0  0  0  0  0  0  0  0  0  0
    6.9240   10.8070    8.6420 H   0  0  0  0  0  0  0  0  0  0  0  0
    5.4620   10.3220    7.7860 H   0  0  0  0  0  0  0  0  0  0  0  0
    7.1790    8.5920    8.3850 H   0  0  0  0  0  0  0  0  0  0  0  0
    6.8620    8.5300    6.6400 H   0  0  0  0  0  0  0  0  0  0  0  0
    9.1580   10.2660    7.7940 H   0  0  0  0  0  0  0  0  0  0  0  0
    9.4290    8.5100    7.4930 H   0  0  0  0  0  0  0  0  0  0  0  0
    8.9200    8.5330    5.3240 H   0  0  0  0  0  0  0  0  0  0  0  0
    8.1170   10.1770    5.3280 H   0  0  0  0  0  0  0  0  0  0  0  0
   10.4430   11.1230    5.7140 H   0  0  0  0  0  0  0  0  0  0  0  0
   11.0730    9.5030    5.2160 H   0  0  0  0  0  0  0  0  0  0  0  0
    9.2080   11.4990    3.6910 H   0  0  0  0  0  0  0  0  0  0  0  0
   10.9020   11.1040    3.3110 H   0  0  0  0  0  0  0  0  0  0  0  0
   10.1700    8.7620    2.6350 H   0  0  0  0  0  0  0  0  0  0  0  0
    9.5360   10.1180    1.6550 H   0  0  0  0  0  0  0  0  0  0  0  0
    7.8380    8.5830    3.7050 H   0  0  0  0  0  0  0  0  0  0  0  0
    7.2510    9.9320    2.7830 H   0  0  0  0  0  0  0  0  0  0  0  0
    6.8210    7.3630    2.2650 H   0  0  0  0  0  0  0  0  0  0  0  0
    8.4480    7.3480    1.5410 H   0  0  0  0  0  0  0  0  0  0  0  0
    6.5440    7.6510   -0.0890 H   0  0  0  0  0  0  0  0  0  0  0  0
    5.9380    8.9660    0.9160 H   0  0  0  0  0  0  0  0  0  0  0  0
    6.9340    9.8530   -1.1590 H   0  0  0  0  0  0  0  0  0  0  0  0
    7.8610   10.4370    0.2480 H   0  0  0  0  0  0  0  0  0  0  0  0
    8.5530    8.0370   -1.5810 H   0  0  0  0  0  0  0  0  0  0  0  0
    9.3380    9.6630   -1.6200 H   0  0  0  0  0  0  0  0  0  0  0  0
    9.5660    8.5900   -0.1890 H   0  0  0  0  0  0  0  0  0  0  0  0
    7.1040   14.0530    0.6250 C   0  0  0  0  0  0  0  0  0  0  0  0
    7.7830   15.5880    0.6810 C   0  0  0  0  0  0  0  0  0  0  0  0
    9.3220   16.2720    0.7390 C   0  0  0  0  0  0  0  0  0  0  0  0
   10.4370   16.6340   -0.4260 C   0  0  0  0  0  0  0  0  0  0  0  0
   11.6660   17.6680   -0.0360 C   0  0  0  0  0  0  0  0  0  0  0  0
   12.8960   17.9720   -1.0790 C   0  0  0  0  0  0  0  0  0  0  0  0
   14.0540   19.0120   -0.6340 C   0  0  0  0  0  0  0  0  0  0  0  0
   15.4580   18.9400   -1.4250 C   0  0  0  0  0  0  0  0  0  0  0  0
   16.5900   19.9360   -0.9310 C   0  0  0  0  0  0  0  0  0  0  0  0
   18.0750   19.8440   -1.4870 C   0  0  0  0  0  0  0  0  0  0  0  0
   18.8360   18.5140   -1.2050 C   0  0  0  0  0  0  0  0  0  0  0  0
   18.4870   17.4440   -2.2570 C   0  0  0  0  0  0  0  0  0  0  0  0
   18.4280   15.9940   -1.7390 C   0  0  0  0  0  0  0  0  0  0  0  0
   19.7130   15.1450   -1.7310 C   0  0  0  0  0  0  0  0  0  0  0  0
   20.8270   15.5070   -0.7430 C   0  0  0  0  0  0  0  0  0  0  0  0
   20.3830   15.4410    0.7160 C   0  0  0  0  0  0  0  0  0  0  0  0
    7.9120   13.2910    0.5460 H   0  0  0  0  0  0  0  0  0  0  0  0
    6.6700   14.0340   -0.4000 H   0  0  0  0  0  0  0  0  0  0  0  0
    7.2720   16.1680   -0.1210 H   0  0  0  0  0  0  0  0  0  0  0  0
    7.3160   15.9870    1.6050 H   0  0  0  0  0  0  0  0  0  0  0  0
    9.0820   17.3090    1.0790 H   0  0  0  0  0  0  0  0  0  0  0  0
    9.8660   15.8020    1.5840 H   0  0  0  0  0  0  0  0  0  0  0  0
   10.8810   15.6820   -0.7850 H   0  0  0  0  0  0  0  0  0  0  0  0
    9.9070   17.1060   -1.2780 H   0  0  0  0  0  0  0  0  0  0  0  0
   11.2160   18.6520    0.2190 H   0  0  0  0  0  0  0  0  0  0  0  0
   12.1570   17.2810    0.8750 H   0  0  0  0  0  0  0  0  0  0  0  0
   12.4960   18.3290   -2.0490 H   0  0  0  0  0  0  0  0  0  0  0  0
   13.3930   16.9960   -1.2540 H   0  0  0  0  0  0  0  0  0  0  0  0
   13.6680   20.0520   -0.7060 H   0  0  0  0  0  0  0  0  0  0  0  0
   14.3170   18.8230    0.4210 H   0  0  0  0  0  0  0  0  0  0  0  0
   15.8280   17.9100   -1.2510 H   0  0  0  0  0  0  0  0  0  0  0  0
   15.3110   19.1000   -2.5150 H   0  0  0  0  0  0  0  0  0  0  0  0
   16.2520   20.9760   -1.1370 H   0  0  0  0  0  0  0  0  0  0  0  0
   16.6810   19.8340    0.1700 H   0  0  0  0  0  0  0  0  0  0  0  0
   18.1650   20.1070   -2.5670 H   0  0  0  0  0  0  0  0  0  0  0  0
   18.6500   20.6380   -0.9450 H   0  0  0  0  0  0  0  0  0  0  0  0
   18.5680   18.2090   -0.1720 H   0  0  0  0  0  0  0  0  0  0  0  0
   19.9410   18.6500   -1.2330 H   0  0  0  0  0  0  0  0  0  0  0  0
   17.4620   17.6520   -2.5910 H   0  0  0  0  0  0  0  0  0  0  0  0
   19.1030   17.5550   -3.1800 H   0  0  0  0  0  0  0  0  0  0  0  0
   17.7750   15.4630   -2.4650 H   0  0  0  0  0  0  0  0  0  0  0  0
   17.9010   15.9620   -0.7620 H   0  0  0  0  0  0  0  0  0  0  0  0
   19.3970   14.1020   -1.4970 H   0  0  0  0  0  0  0  0  0  0  0  0
   20.1380   15.1360   -2.7570 H   0  0  0  0  0  0  0  0  0  0  0  0
   21.6340   14.7510   -0.8800 H   0  0  0  0  0  0  0  0  0  0  0  0
   21.2490   16.5060   -0.9730 H   0  0  0  0  0  0  0  0  0  0  0  0
   19.9510   14.4440    0.9500 H   0  0  0  0  0  0  0  0  0  0  0  0
   21.2640   15.6030    1.3740 H   0  0  0  0  0  0  0  0  0  0  0  0
   19.6330   16.2280    0.9300 H   0  0  0  0  0  0  0  0  0  0  0  0
  2  1  1  0  0  0  0
  2  6  1  6  0  0  0
  3  2  1  0  0  0  0
  3  4  1  6  0  0  0
  5  4  1  0  0  0  0
  6  5  1  0  0  0  0
  7  3  1  0  0  0  0
  7 11  1  6  0  0  0
  8  1  1  0  0  0  0
  8  7  1  0  0  0  0
  8  9  1  1  0  0  0
 10  9  1  6  0  0  0
 11 10  1  0  0  0  0
 12  5  1  0  0  0  0
 13  6  1  0  0  0  0
 14  9  1  0  0  0  0
 16 10  1  0  0  0  0
 16 15  1  1  0  0  0
 17 16  1  0  0  0  0
 17 18  1  1  0  0  0
 19 18  1  0  0  0  0
 20 19  1  0  0  0  0
 21 17  1  0  0  0  0
 21 20  1  6  0  0  0
 22 21  1  0  0  0  0
 23 15  1  0  0  0  0
 23 22  1  0  0  0  0
 24 15  1  0  0  0  0
 25 22  1  0  0  0  0
 26  1  1  0  0  0  0
 27 26  1  0  0  0  0
 28 27  1  0  0  0  0
 29 28  1  0  0  0  0
 30 29  1  0  0  0  0
 31 30  1  0  0  0  0
 32 31  1  0  0  0  0
 33 32  1  0  0  0  0
 34 33  1  0  0  0  0
 35 34  1  0  0  0  0
 36 35  1  0  0  0  0
 37 36  1  0  0  0  0
 38 37  1  0  0  0  0
 39 38  1  0  0  0  0
 40 39  1  0  0  0  0
 41 40  1  0  0  0  0
 42 26  1  0  0  0  0
 43 26  1  0  0  0  0
 44 27  1  0  0  0  0
 45 27  1  0  0  0  0
 46 28  1  0  0  0  0
 47 28  1  0  0  0  0
 48 29  1  0  0  0  0
 49 29  1  0  0  0  0
 50 30  1  0  0  0  0
 51 30  1  0  0  0  0
 52 31  1  0  0  0  0
 53 31  1  0  0  0  0
 54 32  1  0  0  0  0
 55 32  1  0  0  0  0
 56 33  1  0  0  0  0
 57 33  1  0  0  0  0
 58 34  1  0  0  0  0
 59 34  1  0  0  0  0
 60 35  1  0  0  0  0
 61 35  1  0  0  0  0
 62 36  1  0  0  0  0
 63 36  1  0  0  0  0
 64 37  1  0  0  0  0
 65 37  1  0  0  0  0
 66 38  1  0  0  0  0
 67 38  1  0  0  0  0
 68 39  1  0  0  0  0
 69 39  1  0  0  0  0
 70 40  1  0  0  0  0
 71 40  1  0  0  0  0
 72 41  1  0  0  0  0
 73 41  1  0  0  0  0
 74 41  1  0  0  0  0
 75  1  1  0  0  0  0
 76 75  1  0  0  0  0
 77 76  1  0  0  0  0
 78 77  1  0  0  0  0
 79 78  1  0  0  0  0
 80 79  1  0  0  0  0
 81 80  1  0  0  0  0
 82 81  1  0  0  0  0
 83 82  1  0  0  0  0
 84 83  1  0  0  0  0
 85 84  1  0  0  0  0
 86 85  1  0  0  0  0
 87 86  1  0  0  0  0
 88 87  1  0  0  0  0
 89 88  1  0  0  0  0
 90 89  1  0  0  0  0
 91 75  1  0  0  0  0
 92 75  1  0  0  0  0
 93 76  1  0  0  0  0
 94 76  1  0  0  0  0
 95 77  1  0  0  0  0
 96 77  1  0  0  0  0
 97 78  1  0  0  0  0
 98 78  1  0  0  0  0
 99 79  1  0  0  0  0
100 79  1  0  0  0  0
101 80  1  0  0  0  0
102 80  1  0  0  0  0
103 81  1  0  0  0  0
104 81  1  0  0  0  0
105 82  1  0  0  0  0
106 82  1  0  0  0  0
107 83  1  0  0  0  0
108 83  1  0  0  0  0
109 84  1  0  0  0  0
110 84  1  0  0  0  0
111 85  1  0  0  0  0
112 85  1  0  0  0  0
113 86  1  0  0  0  0
114 86  1  0  0  0  0
115 87  1  0  0  0  0
116 87  1  0  0  0  0
117 88  1  0  0  0  0
118 88  1  0  0  0  0
119 89  1  0  0  0  0
120 89  1  0  0  0  0
121 90  1  0  0  0  0
122 90  1  0  0  0  0
123 90  1  0  0  0  0
M  END
$$$$
