Compound
 OpenBabel01092315133D

  9  9  0  0  0  0  0  0  0  0999 V2000
    0.6984   -0.6804   -0.0481 C   0  0  0  0  0  3  0  0  0  0  0  0
   -0.6978   -0.6802    0.0590 C   0  0  0  0  0  3  0  0  0  0  0  0
   -1.2527    0.5915    0.0914 C   0  0  0  0  0  3  0  0  0  0  0  0
   -0.0008    1.7078   -0.0136 S   0  0  0  0  0  0  0  0  0  0  0  0
    1.2521    0.5911   -0.1008 C   0  0  0  0  0  3  0  0  0  0  0  0
    1.2897   -1.5856   -0.0862 H   0  0  0  0  0  0  0  0  0  0  0  0
   -1.2882   -1.5852    0.1114 H   0  0  0  0  0  0  0  0  0  0  0  0
   -2.3066    0.8209    0.1704 H   0  0  0  0  0  0  0  0  0  0  0  0
    2.3059    0.8202   -0.1834 H   0  0  0  0  0  0  0  0  0  0  0  0
  2  1  1  0  0  0  0
  3  2  1  0  0  0  0
  4  3  1  0  0  0  0
  5  1  1  0  0  0  0
  5  4  1  0  0  0  0
  6  1  1  0  0  0  0
  7  2  1  0  0  0  0
  8  3  1  0  0  0  0
  9  5  1  0  0  0  0
M  END
$$$$
